*SPEF "ieee 1481-1999"
*DESIGN "pll_top"
*DATE "15:31:06 Monday December 22, 2025"
*VENDOR "The OpenROAD Project"
*PROGRAM "OpenROAD"
*VERSION "edf00dff99f6c40d67a30c0e22a8191c5d2ed9d6"
*DESIGN_FLOW "NAME_SCOPE LOCAL" "PIN_CAP NONE"
*DIVIDER /
*DELIMITER :
*BUS_DELIMITER []
*T_UNIT 1 NS
*C_UNIT 1 PF
*R_UNIT 1 OHM
*L_UNIT 1 HENRY

*NAME_MAP
*3 debug_dco_word[0]
*4 debug_dco_word[10]
*5 debug_dco_word[11]
*6 debug_dco_word[12]
*7 debug_dco_word[13]
*8 debug_dco_word[14]
*9 debug_dco_word[15]
*10 debug_dco_word[16]
*11 debug_dco_word[17]
*12 debug_dco_word[18]
*13 debug_dco_word[19]
*14 debug_dco_word[1]
*15 debug_dco_word[20]
*16 debug_dco_word[21]
*17 debug_dco_word[22]
*18 debug_dco_word[23]
*19 debug_dco_word[24]
*20 debug_dco_word[25]
*21 debug_dco_word[26]
*22 debug_dco_word[27]
*23 debug_dco_word[28]
*24 debug_dco_word[29]
*25 debug_dco_word[2]
*26 debug_dco_word[30]
*27 debug_dco_word[31]
*28 debug_dco_word[3]
*29 debug_dco_word[4]
*30 debug_dco_word[5]
*31 debug_dco_word[6]
*32 debug_dco_word[7]
*33 debug_dco_word[8]
*34 debug_dco_word[9]
*35 div_val[0]
*36 div_val[10]
*37 div_val[11]
*38 div_val[12]
*39 div_val[13]
*40 div_val[14]
*41 div_val[15]
*42 div_val[16]
*43 div_val[17]
*44 div_val[18]
*45 div_val[19]
*46 div_val[1]
*47 div_val[20]
*48 div_val[21]
*49 div_val[22]
*50 div_val[23]
*51 div_val[24]
*52 div_val[25]
*53 div_val[26]
*54 div_val[27]
*55 div_val[28]
*56 div_val[29]
*57 div_val[2]
*58 div_val[30]
*59 div_val[31]
*60 div_val[3]
*61 div_val[4]
*62 div_val[5]
*63 div_val[6]
*64 div_val[7]
*65 div_val[8]
*66 div_val[9]
*67 initial_freq[0]
*68 initial_freq[10]
*69 initial_freq[11]
*70 initial_freq[12]
*71 initial_freq[13]
*72 initial_freq[14]
*73 initial_freq[15]
*74 initial_freq[16]
*75 initial_freq[17]
*76 initial_freq[18]
*77 initial_freq[19]
*78 initial_freq[1]
*79 initial_freq[20]
*80 initial_freq[21]
*81 initial_freq[22]
*82 initial_freq[23]
*83 initial_freq[24]
*84 initial_freq[25]
*85 initial_freq[26]
*86 initial_freq[27]
*87 initial_freq[28]
*88 initial_freq[29]
*89 initial_freq[2]
*90 initial_freq[30]
*91 initial_freq[31]
*92 initial_freq[3]
*93 initial_freq[4]
*94 initial_freq[5]
*95 initial_freq[6]
*96 initial_freq[7]
*97 initial_freq[8]
*98 initial_freq[9]
*99 lock_detect
*100 pll_out
*101 ref_clk
*102 rst_n
*103 sys_clk
*104 _0000_
*105 _0001_
*106 _0002_
*107 _0003_
*108 _0004_
*109 _0005_
*110 _0006_
*111 _0007_
*112 _0008_
*113 _0009_
*114 _0010_
*115 _0011_
*116 _0012_
*117 _0013_
*118 _0014_
*119 _0015_
*120 _0016_
*121 _0017_
*122 _0018_
*123 _0019_
*124 _0020_
*125 _0021_
*126 _0022_
*127 _0023_
*128 _0024_
*129 _0025_
*130 _0026_
*131 _0027_
*132 _0028_
*133 _0029_
*134 _0030_
*135 _0031_
*136 _0032_
*137 _0033_
*138 _0034_
*139 _0035_
*140 _0036_
*141 _0037_
*142 _0038_
*143 _0039_
*144 _0040_
*145 _0041_
*146 _0042_
*147 _0043_
*148 _0044_
*149 _0045_
*150 _0046_
*151 _0047_
*152 _0048_
*153 _0049_
*154 _0050_
*155 _0051_
*156 _0052_
*157 _0053_
*158 _0054_
*159 _0055_
*160 _0056_
*161 _0057_
*162 _0058_
*163 _0059_
*164 _0060_
*165 _0061_
*166 _0062_
*167 _0063_
*168 _0064_
*169 _0065_
*170 _0066_
*171 _0067_
*172 _0068_
*173 _0069_
*174 _0070_
*175 _0071_
*176 _0072_
*177 _0073_
*178 _0074_
*179 _0075_
*180 _0076_
*181 _0077_
*182 _0078_
*183 _0079_
*184 _0080_
*185 _0081_
*186 _0082_
*187 _0083_
*188 _0084_
*189 _0085_
*190 _0086_
*191 _0087_
*192 _0088_
*193 _0089_
*194 _0090_
*195 _0091_
*196 _0092_
*197 _0093_
*198 _0094_
*199 _0095_
*200 _0096_
*201 _0097_
*202 _0098_
*203 _0099_
*204 _0100_
*205 _0101_
*206 _0102_
*207 _0103_
*208 _0104_
*209 _0105_
*210 _0106_
*211 _0107_
*212 _0108_
*213 _0109_
*214 _0110_
*215 _0111_
*216 _0112_
*217 _0113_
*218 _0114_
*219 _0115_
*220 _0116_
*221 _0117_
*222 _0118_
*223 _0119_
*224 _0120_
*225 _0121_
*226 _0122_
*227 _0123_
*228 _0124_
*229 _0125_
*230 _0126_
*231 _0127_
*232 _0128_
*233 _0129_
*234 _0130_
*235 _0131_
*236 _0132_
*237 _0133_
*238 _0134_
*239 _0135_
*240 _0136_
*241 _0137_
*242 _0138_
*243 _0139_
*244 _0140_
*245 _0141_
*246 _0142_
*247 _0143_
*248 _0144_
*249 _0145_
*250 _0146_
*251 _0147_
*252 _0148_
*253 _0149_
*254 _0150_
*255 _0151_
*256 _0152_
*257 _0153_
*258 _0154_
*259 _0155_
*260 _0156_
*261 _0157_
*262 _0158_
*263 _0159_
*264 _0160_
*265 _0161_
*266 _0162_
*267 _0163_
*268 _0164_
*269 _0165_
*270 _0166_
*271 _0167_
*272 _0168_
*273 _0169_
*274 _0170_
*275 _0171_
*276 _0172_
*277 _0173_
*278 _0174_
*279 _0175_
*280 _0176_
*281 _0177_
*282 _0178_
*283 _0179_
*284 _0180_
*285 _0181_
*286 _0182_
*287 _0183_
*288 _0184_
*289 _0185_
*290 _0186_
*291 _0187_
*292 _0188_
*293 _0189_
*294 _0190_
*295 _0191_
*296 _0192_
*297 _0193_
*298 _0194_
*299 _0195_
*300 _0196_
*301 _0197_
*302 _0198_
*303 _0199_
*304 _0200_
*305 _0201_
*306 _0202_
*307 _0203_
*308 _0204_
*309 _0205_
*310 _0206_
*311 _0207_
*312 _0208_
*313 _0209_
*314 _0210_
*315 _0211_
*316 _0212_
*317 _0213_
*318 _0214_
*319 _0215_
*320 _0216_
*321 _0217_
*322 _0218_
*323 _0219_
*324 _0220_
*325 _0221_
*326 _0222_
*327 _0223_
*328 _0224_
*329 _0225_
*330 _0226_
*331 _0227_
*332 _0228_
*333 _0229_
*334 _0230_
*335 _0231_
*336 _0232_
*337 _0233_
*338 _0234_
*339 _0235_
*340 _0236_
*341 _0237_
*342 _0238_
*343 _0239_
*344 _0240_
*345 _0241_
*346 _0242_
*347 _0243_
*348 _0244_
*349 _0245_
*350 _0246_
*351 _0247_
*352 _0248_
*353 _0249_
*354 _0250_
*355 _0251_
*356 _0252_
*357 _0253_
*358 _0254_
*359 _0255_
*360 _0256_
*361 _0257_
*362 _0258_
*363 _0259_
*364 _0260_
*365 _0261_
*366 _0262_
*367 _0263_
*368 _0264_
*369 _0265_
*370 _0266_
*371 _0267_
*372 _0268_
*373 _0269_
*374 _0270_
*375 _0271_
*376 _0272_
*377 _0273_
*378 _0274_
*379 _0275_
*380 _0276_
*381 _0277_
*382 _0278_
*383 _0279_
*384 _0280_
*385 _0281_
*386 _0282_
*387 _0283_
*388 _0284_
*389 _0285_
*390 _0286_
*391 _0287_
*392 _0288_
*393 _0289_
*394 _0290_
*395 _0291_
*396 _0292_
*397 _0293_
*398 _0294_
*399 _0295_
*400 _0296_
*401 _0297_
*402 _0298_
*403 _0299_
*404 _0300_
*405 _0301_
*406 _0302_
*407 _0303_
*408 _0304_
*409 _0305_
*410 _0306_
*411 _0307_
*412 _0308_
*413 _0309_
*414 _0310_
*415 _0311_
*416 _0312_
*417 _0313_
*418 _0314_
*419 _0315_
*420 _0316_
*421 _0317_
*422 _0318_
*423 _0319_
*424 _0320_
*425 _0321_
*426 _0322_
*427 _0323_
*428 _0324_
*429 _0325_
*430 _0326_
*431 _0327_
*432 _0328_
*433 _0329_
*434 _0330_
*435 _0331_
*436 _0332_
*437 _0333_
*438 _0334_
*439 _0335_
*440 _0336_
*441 _0337_
*442 _0338_
*443 _0339_
*444 _0340_
*445 _0341_
*446 _0342_
*447 _0343_
*448 _0344_
*449 _0345_
*450 _0346_
*451 _0347_
*452 _0348_
*453 _0349_
*454 _0350_
*455 _0351_
*456 _0352_
*457 _0353_
*458 _0354_
*459 _0355_
*460 _0356_
*461 _0357_
*462 _0358_
*463 _0359_
*464 _0360_
*465 _0361_
*466 _0362_
*467 _0363_
*468 _0364_
*469 _0365_
*470 _0366_
*471 _0367_
*472 _0368_
*473 _0369_
*474 _0370_
*475 _0371_
*476 _0372_
*477 _0373_
*478 _0374_
*479 _0375_
*480 _0376_
*481 _0377_
*482 _0378_
*483 _0379_
*484 _0380_
*485 _0381_
*486 _0382_
*487 _0383_
*488 _0384_
*489 _0385_
*490 _0386_
*491 _0387_
*492 _0388_
*493 _0389_
*494 _0390_
*495 _0391_
*496 _0392_
*497 _0393_
*498 _0394_
*499 _0395_
*500 _0396_
*501 _0397_
*502 _0398_
*503 _0399_
*504 _0400_
*505 _0401_
*506 _0402_
*507 _0403_
*508 _0404_
*509 _0405_
*510 _0406_
*511 _0407_
*512 _0408_
*513 _0409_
*514 _0410_
*515 _0411_
*516 _0412_
*517 _0413_
*518 _0414_
*519 _0415_
*520 _0416_
*521 _0417_
*522 _0418_
*523 _0419_
*524 _0420_
*525 _0421_
*526 _0422_
*527 _0423_
*528 _0424_
*529 _0425_
*530 _0426_
*531 _0427_
*532 _0428_
*533 _0429_
*534 _0430_
*535 _0431_
*536 _0432_
*537 _0433_
*538 _0434_
*539 _0435_
*540 _0436_
*541 _0437_
*542 _0438_
*543 _0439_
*544 _0440_
*545 _0441_
*546 _0442_
*547 _0443_
*548 _0444_
*549 _0445_
*550 _0446_
*551 _0447_
*552 _0448_
*553 _0449_
*554 _0450_
*555 _0451_
*556 _0452_
*557 _0453_
*558 _0454_
*559 _0455_
*560 _0456_
*561 _0457_
*562 _0458_
*563 _0459_
*564 _0460_
*565 _0461_
*566 _0462_
*567 _0463_
*568 _0464_
*569 _0465_
*570 _0466_
*571 _0467_
*572 _0468_
*573 _0469_
*574 _0470_
*575 _0471_
*576 _0472_
*577 _0473_
*578 _0474_
*579 _0475_
*580 _0476_
*581 _0477_
*582 _0478_
*583 _0479_
*584 _0480_
*585 _0481_
*586 _0482_
*587 _0483_
*588 _0484_
*589 _0485_
*590 _0486_
*591 _0487_
*592 _0488_
*593 _0489_
*594 _0490_
*595 _0491_
*596 _0492_
*597 _0493_
*598 _0494_
*599 _0495_
*600 _0496_
*601 _0497_
*602 _0498_
*603 _0499_
*604 _0500_
*605 _0501_
*606 _0502_
*607 _0503_
*608 _0504_
*609 _0505_
*610 _0506_
*611 _0507_
*612 _0508_
*613 _0509_
*614 _0510_
*615 _0511_
*616 _0512_
*617 _0513_
*618 _0514_
*619 _0515_
*620 _0516_
*621 _0517_
*622 _0518_
*623 _0519_
*624 _0520_
*625 _0521_
*626 _0522_
*627 _0523_
*628 _0524_
*629 _0525_
*630 _0526_
*631 _0527_
*632 _0528_
*633 _0529_
*634 _0530_
*635 _0531_
*636 _0532_
*637 _0533_
*638 _0534_
*639 _0535_
*640 _0536_
*641 _0537_
*642 _0538_
*643 _0539_
*644 _0540_
*645 _0541_
*646 _0542_
*647 _0543_
*648 _0544_
*649 _0545_
*650 _0546_
*651 _0547_
*652 _0548_
*653 _0549_
*654 _0550_
*655 _0551_
*656 _0552_
*657 _0553_
*658 _0554_
*659 _0555_
*660 _0556_
*661 _0557_
*662 _0558_
*663 _0559_
*664 _0560_
*665 _0561_
*666 _0562_
*667 _0563_
*668 _0564_
*669 _0565_
*670 _0566_
*671 _0567_
*672 _0568_
*673 _0569_
*674 _0570_
*675 _0571_
*676 _0572_
*677 _0573_
*678 _0574_
*679 _0575_
*680 _0576_
*681 _0577_
*682 _0578_
*683 _0579_
*684 _0580_
*685 _0581_
*686 _0582_
*687 _0583_
*688 _0584_
*689 _0585_
*690 _0586_
*691 _0587_
*692 _0588_
*693 _0589_
*694 _0590_
*695 _0591_
*696 _0592_
*697 _0593_
*698 _0594_
*699 _0595_
*700 _0596_
*701 _0597_
*702 _0598_
*703 _0599_
*704 _0600_
*705 _0601_
*706 _0602_
*707 _0603_
*708 _0604_
*709 _0605_
*710 _0606_
*711 _0607_
*712 _0608_
*713 _0609_
*714 _0610_
*715 _0611_
*716 _0612_
*717 _0613_
*718 _0614_
*719 _0615_
*720 _0616_
*721 _0617_
*722 _0618_
*723 _0619_
*724 _0620_
*725 _0621_
*726 _0622_
*727 _0623_
*728 _0624_
*729 _0625_
*730 _0626_
*731 _0627_
*732 _0628_
*733 _0629_
*734 _0630_
*735 _0631_
*736 _0632_
*737 _0633_
*738 _0634_
*739 _0635_
*740 _0636_
*741 _0637_
*742 _0638_
*743 _0639_
*744 _0640_
*745 _0641_
*746 _0642_
*747 _0643_
*748 _0644_
*749 _0645_
*750 _0646_
*751 _0647_
*752 _0648_
*753 _0649_
*754 _0650_
*755 _0651_
*756 _0652_
*757 _0653_
*758 _0654_
*759 _0655_
*760 _0656_
*761 _0657_
*762 _0658_
*763 _0659_
*764 _0660_
*765 _0661_
*766 _0662_
*767 _0663_
*768 _0664_
*769 _0665_
*770 _0666_
*771 _0667_
*772 _0668_
*773 _0669_
*774 _0670_
*775 _0671_
*776 _0672_
*777 _0673_
*778 _0674_
*779 _0675_
*780 _0676_
*781 _0677_
*782 _0678_
*783 _0679_
*784 _0680_
*785 _0681_
*786 _0682_
*787 _0683_
*788 _0684_
*789 _0685_
*790 _0686_
*791 _0687_
*792 _0688_
*793 _0689_
*794 _0690_
*795 _0691_
*796 _0692_
*797 _0693_
*798 _0694_
*799 _0695_
*800 _0696_
*801 _0697_
*802 _0698_
*803 _0699_
*804 _0700_
*805 _0701_
*806 _0702_
*807 _0703_
*808 _0704_
*809 _0705_
*810 _0706_
*811 _0707_
*812 _0708_
*813 _0709_
*814 _0710_
*815 _0711_
*816 _0712_
*817 _0713_
*818 _0714_
*819 _0715_
*820 _0716_
*821 _0717_
*822 _0718_
*823 _0719_
*824 _0720_
*825 _0721_
*826 _0722_
*827 _0723_
*828 _0724_
*829 _0725_
*830 _0726_
*831 _0727_
*832 _0728_
*833 _0729_
*834 _0730_
*835 _0731_
*836 _0732_
*837 _0733_
*838 _0734_
*839 _0735_
*840 _0736_
*841 _0737_
*842 _0738_
*843 _0739_
*844 _0740_
*845 _0741_
*846 _0742_
*847 _0743_
*848 _0744_
*849 _0745_
*850 _0746_
*851 _0747_
*852 _0748_
*853 _0749_
*854 _0750_
*855 _0751_
*856 _0752_
*857 _0753_
*858 _0754_
*859 _0755_
*860 _0756_
*861 _0757_
*862 _0758_
*863 _0759_
*864 _0760_
*865 _0761_
*866 _0762_
*867 _0763_
*868 _0764_
*869 _0765_
*870 _0766_
*871 _0767_
*872 _0768_
*873 _0769_
*874 _0770_
*875 _0771_
*876 _0772_
*877 _0773_
*878 _0774_
*879 _0775_
*880 _0776_
*881 _0777_
*882 _0778_
*883 _0779_
*884 _0780_
*885 _0781_
*886 _0782_
*887 _0783_
*888 _0784_
*889 _0785_
*890 _0786_
*891 _0787_
*892 _0788_
*893 _0789_
*894 _0790_
*895 _0791_
*896 _0792_
*897 _0793_
*898 _0794_
*899 _0795_
*900 _0796_
*901 _0797_
*902 _0798_
*903 _0799_
*904 _0800_
*905 _0801_
*906 _0802_
*907 _0803_
*908 _0804_
*909 _0805_
*910 _0806_
*911 _0807_
*912 _0808_
*913 _0809_
*914 _0810_
*915 _0811_
*916 _0812_
*917 _0813_
*918 _0814_
*919 _0815_
*920 _0816_
*921 _0817_
*922 _0818_
*923 _0819_
*924 _0820_
*925 _0821_
*926 _0822_
*927 _0823_
*928 _0824_
*929 _0825_
*930 _0826_
*931 _0827_
*932 _0828_
*933 _0829_
*934 _0830_
*935 _0831_
*936 _0832_
*937 _0833_
*938 _0834_
*939 _0835_
*940 _0836_
*941 _0837_
*942 _0838_
*943 _0839_
*944 _0840_
*945 _0841_
*946 _0842_
*947 _0843_
*948 _0844_
*949 _0845_
*950 _0846_
*951 _0847_
*952 _0848_
*953 _0849_
*954 _0850_
*955 _0851_
*956 _0852_
*957 _0853_
*958 _0854_
*959 _0855_
*960 _0856_
*961 _0857_
*962 _0858_
*963 _0859_
*964 _0860_
*965 _0861_
*966 _0862_
*967 _0863_
*968 _0864_
*969 _0865_
*970 _0866_
*971 _0867_
*972 _0868_
*973 _0869_
*974 _0870_
*975 _0871_
*976 _0872_
*977 _0873_
*978 _0874_
*979 _0875_
*980 _0876_
*981 _0877_
*982 _0878_
*983 _0879_
*984 _0880_
*985 _0881_
*986 _0882_
*987 _0883_
*988 _0884_
*989 _0885_
*990 _0886_
*991 _0887_
*992 _0888_
*993 _0889_
*994 _0890_
*995 _0891_
*996 _0892_
*997 _0893_
*998 _0894_
*999 _0895_
*1000 _0896_
*1001 _0897_
*1002 _0898_
*1003 _0899_
*1004 _0900_
*1005 _0901_
*1006 _0902_
*1007 _0903_
*1008 _0904_
*1009 _0905_
*1010 _0906_
*1011 _0907_
*1012 _0908_
*1013 _0909_
*1014 _0910_
*1015 _0911_
*1016 _0912_
*1017 _0913_
*1018 _0914_
*1019 _0915_
*1020 _0916_
*1021 _0917_
*1022 _0918_
*1023 _0919_
*1024 _0920_
*1025 _0921_
*1026 _0922_
*1027 _0923_
*1028 _0924_
*1029 _0925_
*1030 _0926_
*1031 _0927_
*1032 _0928_
*1033 _0929_
*1034 _0930_
*1035 _0931_
*1036 _0932_
*1037 _0933_
*1038 _0934_
*1039 _0935_
*1040 _0936_
*1041 _0937_
*1042 _0938_
*1043 _0939_
*1044 _0940_
*1045 _0941_
*1046 _0942_
*1047 _0943_
*1048 _0944_
*1049 _0945_
*1050 _0946_
*1051 _0947_
*1052 _0948_
*1053 _0949_
*1054 _0950_
*1055 _0951_
*1056 _0952_
*1057 _0953_
*1058 _0954_
*1059 _0955_
*1060 _0956_
*1061 _0957_
*1062 _0958_
*1063 _0959_
*1064 _0960_
*1065 _0961_
*1066 _0962_
*1067 _0963_
*1068 _0964_
*1069 _0965_
*1070 _0966_
*1071 _0967_
*1072 _0968_
*1073 _0969_
*1074 _0970_
*1075 _0971_
*1076 _0972_
*1077 _0973_
*1078 _0974_
*1079 _0975_
*1080 _0976_
*1081 _0977_
*1082 _0978_
*1083 _0979_
*1084 _0980_
*1085 _0981_
*1086 _0982_
*1087 _0983_
*1088 _0984_
*1089 _0985_
*1090 _0986_
*1091 _0987_
*1092 _0988_
*1093 _0989_
*1094 _0990_
*1095 _0991_
*1096 _0992_
*1097 _0993_
*1098 _0994_
*1099 _0995_
*1100 _0996_
*1101 _0997_
*1102 _0998_
*1103 _0999_
*1104 _1000_
*1105 _1001_
*1106 _1002_
*1107 _1003_
*1108 _1004_
*1109 _1005_
*1110 _1006_
*1111 _1007_
*1112 _1008_
*1113 _1009_
*1114 _1010_
*1115 _1011_
*1116 _1012_
*1117 _1013_
*1118 _1014_
*1119 _1015_
*1120 _1016_
*1121 _1017_
*1122 _1018_
*1123 _1019_
*1124 _1020_
*1125 _1021_
*1126 _1022_
*1127 _1023_
*1128 _1024_
*1129 _1025_
*1130 _1026_
*1131 _1027_
*1132 _1028_
*1133 _1029_
*1134 _1030_
*1135 _1031_
*1136 _1032_
*1137 _1033_
*1138 _1034_
*1139 _1035_
*1140 _1036_
*1141 _1037_
*1142 _1038_
*1143 _1039_
*1144 _1040_
*1145 _1041_
*1146 _1042_
*1147 _1043_
*1148 _1044_
*1149 _1045_
*1150 _1046_
*1151 _1047_
*1152 _1048_
*1153 _1049_
*1154 _1050_
*1155 _1051_
*1156 _1052_
*1157 _1053_
*1158 _1054_
*1159 _1055_
*1160 _1056_
*1161 _1057_
*1162 _1058_
*1163 _1059_
*1164 _1060_
*1165 _1061_
*1166 _1062_
*1167 _1063_
*1168 _1064_
*1169 _1065_
*1170 _1066_
*1171 _1067_
*1172 _1068_
*1173 _1069_
*1174 _1070_
*1175 _1071_
*1176 _1072_
*1177 _1073_
*1178 _1074_
*1179 _1075_
*1180 _1076_
*1181 _1077_
*1182 _1078_
*1183 _1079_
*1184 _1080_
*1185 _1081_
*1186 _1082_
*1187 _1083_
*1188 _1084_
*1189 _1085_
*1190 _1086_
*1191 _1087_
*1192 _1088_
*1193 _1089_
*1194 _1090_
*1195 _1091_
*1196 _1092_
*1197 _1093_
*1198 _1094_
*1199 _1095_
*1200 _1096_
*1201 _1097_
*1202 _1098_
*1203 _1099_
*1204 _1100_
*1205 _1101_
*1206 _1102_
*1207 _1103_
*1208 _1104_
*1209 _1105_
*1210 _1106_
*1211 _1107_
*1212 _1108_
*1213 _1109_
*1214 _1110_
*1215 _1111_
*1216 _1112_
*1217 _1113_
*1218 _1114_
*1219 _1115_
*1220 _1116_
*1221 _1117_
*1222 _1118_
*1223 _1119_
*1224 _1120_
*1225 _1121_
*1226 _1122_
*1227 _1123_
*1228 _1124_
*1229 _1125_
*1230 _1126_
*1231 _1127_
*1232 _1128_
*1233 _1129_
*1234 _1130_
*1235 _1131_
*1236 _1132_
*1237 _1133_
*1238 _1134_
*1239 _1135_
*1240 _1136_
*1241 _1137_
*1242 _1138_
*1243 _1139_
*1244 _1140_
*1245 _1141_
*1246 _1142_
*1247 clknet_0_sys_clk
*1248 clknet_4_0_0_sys_clk
*1249 clknet_4_10_0_sys_clk
*1250 clknet_4_11_0_sys_clk
*1251 clknet_4_12_0_sys_clk
*1252 clknet_4_13_0_sys_clk
*1253 clknet_4_14_0_sys_clk
*1254 clknet_4_15_0_sys_clk
*1255 clknet_4_1_0_sys_clk
*1256 clknet_4_2_0_sys_clk
*1257 clknet_4_3_0_sys_clk
*1258 clknet_4_4_0_sys_clk
*1259 clknet_4_5_0_sys_clk
*1260 clknet_4_6_0_sys_clk
*1261 clknet_4_7_0_sys_clk
*1262 clknet_4_8_0_sys_clk
*1263 clknet_4_9_0_sys_clk
*1264 dco_inst\.accumulator\[0\]
*1265 dco_inst\.accumulator\[10\]
*1266 dco_inst\.accumulator\[11\]
*1267 dco_inst\.accumulator\[12\]
*1268 dco_inst\.accumulator\[13\]
*1269 dco_inst\.accumulator\[14\]
*1270 dco_inst\.accumulator\[15\]
*1271 dco_inst\.accumulator\[16\]
*1272 dco_inst\.accumulator\[17\]
*1273 dco_inst\.accumulator\[18\]
*1274 dco_inst\.accumulator\[19\]
*1275 dco_inst\.accumulator\[1\]
*1276 dco_inst\.accumulator\[20\]
*1277 dco_inst\.accumulator\[21\]
*1278 dco_inst\.accumulator\[22\]
*1279 dco_inst\.accumulator\[23\]
*1280 dco_inst\.accumulator\[24\]
*1281 dco_inst\.accumulator\[25\]
*1282 dco_inst\.accumulator\[26\]
*1283 dco_inst\.accumulator\[27\]
*1284 dco_inst\.accumulator\[28\]
*1285 dco_inst\.accumulator\[29\]
*1286 dco_inst\.accumulator\[2\]
*1287 dco_inst\.accumulator\[30\]
*1288 dco_inst\.accumulator\[3\]
*1289 dco_inst\.accumulator\[4\]
*1290 dco_inst\.accumulator\[5\]
*1291 dco_inst\.accumulator\[6\]
*1292 dco_inst\.accumulator\[7\]
*1293 dco_inst\.accumulator\[8\]
*1294 dco_inst\.accumulator\[9\]
*1295 div_inst\.clk_out
*1296 div_inst\.counter\[0\]
*1297 div_inst\.counter\[10\]
*1298 div_inst\.counter\[11\]
*1299 div_inst\.counter\[12\]
*1300 div_inst\.counter\[13\]
*1301 div_inst\.counter\[14\]
*1302 div_inst\.counter\[15\]
*1303 div_inst\.counter\[16\]
*1304 div_inst\.counter\[17\]
*1305 div_inst\.counter\[18\]
*1306 div_inst\.counter\[19\]
*1307 div_inst\.counter\[1\]
*1308 div_inst\.counter\[20\]
*1309 div_inst\.counter\[21\]
*1310 div_inst\.counter\[22\]
*1311 div_inst\.counter\[23\]
*1312 div_inst\.counter\[24\]
*1313 div_inst\.counter\[25\]
*1314 div_inst\.counter\[26\]
*1315 div_inst\.counter\[27\]
*1316 div_inst\.counter\[28\]
*1317 div_inst\.counter\[29\]
*1318 div_inst\.counter\[2\]
*1319 div_inst\.counter\[30\]
*1320 div_inst\.counter\[31\]
*1321 div_inst\.counter\[3\]
*1322 div_inst\.counter\[4\]
*1323 div_inst\.counter\[5\]
*1324 div_inst\.counter\[6\]
*1325 div_inst\.counter\[7\]
*1326 div_inst\.counter\[8\]
*1327 div_inst\.counter\[9\]
*1328 dynamic_ki\[2\]
*1329 dynamic_kp\[2\]
*1330 lf_inst\.error_in\[0\]
*1331 lf_inst\.error_in\[1\]
*1332 lf_inst\.integrator\[0\]
*1333 lf_inst\.integrator\[10\]
*1334 lf_inst\.integrator\[11\]
*1335 lf_inst\.integrator\[12\]
*1336 lf_inst\.integrator\[13\]
*1337 lf_inst\.integrator\[14\]
*1338 lf_inst\.integrator\[15\]
*1339 lf_inst\.integrator\[16\]
*1340 lf_inst\.integrator\[17\]
*1341 lf_inst\.integrator\[18\]
*1342 lf_inst\.integrator\[19\]
*1343 lf_inst\.integrator\[1\]
*1344 lf_inst\.integrator\[20\]
*1345 lf_inst\.integrator\[21\]
*1346 lf_inst\.integrator\[22\]
*1347 lf_inst\.integrator\[23\]
*1348 lf_inst\.integrator\[24\]
*1349 lf_inst\.integrator\[25\]
*1350 lf_inst\.integrator\[26\]
*1351 lf_inst\.integrator\[27\]
*1352 lf_inst\.integrator\[28\]
*1353 lf_inst\.integrator\[29\]
*1354 lf_inst\.integrator\[2\]
*1355 lf_inst\.integrator\[30\]
*1356 lf_inst\.integrator\[31\]
*1357 lf_inst\.integrator\[3\]
*1358 lf_inst\.integrator\[4\]
*1359 lf_inst\.integrator\[5\]
*1360 lf_inst\.integrator\[6\]
*1361 lf_inst\.integrator\[7\]
*1362 lf_inst\.integrator\[8\]
*1363 lf_inst\.integrator\[9\]
*1364 lf_inst\.sample_en
*1365 lf_inst\.zero_error_count\[0\]
*1366 lf_inst\.zero_error_count\[1\]
*1367 lf_inst\.zero_error_count\[2\]
*1368 lf_inst\.zero_error_count\[3\]
*1369 lf_inst\.zero_error_count\[4\]
*1370 net1
*1371 net10
*1372 net100
*1373 net101
*1374 net102
*1375 net103
*1376 net104
*1377 net105
*1378 net106
*1379 net107
*1380 net108
*1381 net109
*1382 net11
*1383 net110
*1384 net111
*1385 net112
*1386 net113
*1387 net114
*1388 net115
*1389 net116
*1390 net117
*1391 net118
*1392 net119
*1393 net12
*1394 net120
*1395 net121
*1396 net122
*1397 net123
*1398 net124
*1399 net125
*1400 net126
*1401 net127
*1402 net128
*1403 net129
*1404 net13
*1405 net130
*1406 net131
*1407 net132
*1408 net133
*1409 net134
*1410 net135
*1411 net136
*1412 net137
*1413 net138
*1414 net139
*1415 net14
*1416 net140
*1417 net141
*1418 net142
*1419 net143
*1420 net144
*1421 net145
*1422 net146
*1423 net147
*1424 net148
*1425 net149
*1426 net15
*1427 net150
*1428 net151
*1429 net152
*1430 net153
*1431 net154
*1432 net155
*1433 net156
*1434 net157
*1435 net158
*1436 net159
*1437 net16
*1438 net160
*1439 net161
*1440 net162
*1441 net163
*1442 net164
*1443 net165
*1444 net166
*1445 net167
*1446 net168
*1447 net169
*1448 net17
*1449 net170
*1450 net171
*1451 net172
*1452 net173
*1453 net174
*1454 net175
*1455 net176
*1456 net177
*1457 net178
*1458 net179
*1459 net18
*1460 net180
*1461 net181
*1462 net182
*1463 net183
*1464 net184
*1465 net185
*1466 net186
*1467 net187
*1468 net188
*1469 net189
*1470 net19
*1471 net190
*1472 net191
*1473 net192
*1474 net193
*1475 net194
*1476 net195
*1477 net196
*1478 net197
*1479 net198
*1480 net199
*1481 net2
*1482 net20
*1483 net200
*1484 net201
*1485 net202
*1486 net203
*1487 net204
*1488 net205
*1489 net206
*1490 net207
*1491 net208
*1492 net209
*1493 net21
*1494 net210
*1495 net211
*1496 net212
*1497 net213
*1498 net214
*1499 net215
*1500 net216
*1501 net217
*1502 net218
*1503 net219
*1504 net22
*1505 net220
*1506 net221
*1507 net222
*1508 net223
*1509 net224
*1510 net225
*1511 net226
*1512 net227
*1513 net228
*1514 net229
*1515 net23
*1516 net230
*1517 net231
*1518 net232
*1519 net233
*1520 net234
*1521 net235
*1522 net236
*1523 net237
*1524 net238
*1525 net239
*1526 net24
*1527 net240
*1528 net241
*1529 net242
*1530 net243
*1531 net244
*1532 net245
*1533 net246
*1534 net247
*1535 net248
*1536 net249
*1537 net25
*1538 net250
*1539 net251
*1540 net252
*1541 net253
*1542 net254
*1543 net255
*1544 net256
*1545 net257
*1546 net258
*1547 net259
*1548 net26
*1549 net260
*1550 net261
*1551 net262
*1552 net263
*1553 net264
*1554 net265
*1555 net266
*1556 net267
*1557 net268
*1558 net269
*1559 net27
*1560 net270
*1561 net271
*1562 net272
*1563 net273
*1564 net274
*1565 net275
*1566 net276
*1567 net277
*1568 net278
*1569 net279
*1570 net28
*1571 net280
*1572 net281
*1573 net282
*1574 net283
*1575 net284
*1576 net285
*1577 net286
*1578 net287
*1579 net288
*1580 net289
*1581 net29
*1582 net290
*1583 net291
*1584 net292
*1585 net293
*1586 net294
*1587 net295
*1588 net296
*1589 net297
*1590 net298
*1591 net299
*1592 net3
*1593 net30
*1594 net300
*1595 net301
*1596 net302
*1597 net303
*1598 net304
*1599 net305
*1600 net306
*1601 net307
*1602 net308
*1603 net309
*1604 net31
*1605 net310
*1606 net311
*1607 net312
*1608 net313
*1609 net314
*1610 net315
*1611 net316
*1612 net317
*1613 net318
*1614 net319
*1615 net32
*1616 net320
*1617 net321
*1618 net322
*1619 net323
*1620 net324
*1621 net325
*1622 net326
*1623 net327
*1624 net328
*1625 net329
*1626 net33
*1627 net330
*1628 net331
*1629 net332
*1630 net333
*1631 net334
*1632 net335
*1633 net336
*1634 net337
*1635 net338
*1636 net339
*1637 net34
*1638 net340
*1639 net341
*1640 net342
*1641 net343
*1642 net344
*1643 net345
*1644 net346
*1645 net347
*1646 net348
*1647 net349
*1648 net35
*1649 net350
*1650 net351
*1651 net352
*1652 net353
*1653 net354
*1654 net355
*1655 net356
*1656 net357
*1657 net358
*1658 net359
*1659 net36
*1660 net360
*1661 net361
*1662 net362
*1663 net363
*1664 net364
*1665 net365
*1666 net366
*1667 net367
*1668 net368
*1669 net369
*1670 net37
*1671 net370
*1672 net371
*1673 net372
*1674 net373
*1675 net38
*1676 net39
*1677 net4
*1678 net40
*1679 net41
*1680 net42
*1681 net43
*1682 net44
*1683 net45
*1684 net46
*1685 net47
*1686 net48
*1687 net49
*1688 net5
*1689 net50
*1690 net51
*1691 net52
*1692 net53
*1693 net54
*1694 net55
*1695 net56
*1696 net57
*1697 net58
*1698 net59
*1699 net6
*1700 net60
*1701 net61
*1702 net62
*1703 net63
*1704 net64
*1705 net65
*1706 net66
*1707 net67
*1708 net68
*1709 net69
*1710 net7
*1711 net70
*1712 net71
*1713 net72
*1714 net73
*1715 net74
*1716 net75
*1717 net76
*1718 net77
*1719 net78
*1720 net79
*1721 net8
*1722 net80
*1723 net81
*1724 net82
*1725 net83
*1726 net84
*1727 net85
*1728 net86
*1729 net87
*1730 net88
*1731 net89
*1732 net9
*1733 net90
*1734 net91
*1735 net92
*1736 net93
*1737 net94
*1738 net95
*1739 net96
*1740 net97
*1741 net98
*1742 net99
*1743 pfd_inst\.fb_sync\[0\]
*1744 pfd_inst\.fb_sync\[1\]
*1745 pfd_inst\.fb_sync\[2\]
*1746 pfd_inst\.ref_sync\[0\]
*1747 pfd_inst\.ref_sync\[1\]
*1748 pfd_inst\.ref_sync\[2\]
*1749 pfd_inst\.state\[0\]
*1750 pfd_inst\.state\[1\]
*1751 pfd_inst\.state\[2\]
*1752 unlock_timer\[0\]
*1753 unlock_timer\[1\]
*1754 unlock_timer\[2\]
*1755 unlock_timer\[3\]
*1756 unlock_timer\[4\]
*1757 unlock_timer\[5\]
*1758 FILLER_0_101
*1759 FILLER_0_112
*1760 FILLER_0_128
*1761 FILLER_0_144
*1762 FILLER_0_151
*1763 FILLER_0_167
*1764 FILLER_0_169
*1765 FILLER_0_172
*1766 FILLER_0_180
*1767 FILLER_0_2
*1768 FILLER_0_202
*1769 FILLER_0_206
*1770 FILLER_0_240
*1771 FILLER_0_267
*1772 FILLER_0_271
*1773 FILLER_0_302
*1774 FILLER_0_314
*1775 FILLER_0_327
*1776 FILLER_0_348
*1777 FILLER_0_36
*1778 FILLER_0_363
*1779 FILLER_0_367
*1780 FILLER_0_376
*1781 FILLER_0_378
*1782 FILLER_0_393
*1783 FILLER_0_401
*1784 FILLER_0_405
*1785 FILLER_0_407
*1786 FILLER_0_410
*1787 FILLER_0_444
*1788 FILLER_0_452
*1789 FILLER_0_456
*1790 FILLER_0_52
*1791 FILLER_0_54
*1792 FILLER_0_61
*1793 FILLER_0_65
*1794 FILLER_0_67
*1795 FILLER_0_70
*1796 FILLER_0_74
*1797 FILLER_0_88
*1798 FILLER_10_103
*1799 FILLER_10_125
*1800 FILLER_10_158
*1801 FILLER_10_174
*1802 FILLER_10_185
*1803 FILLER_10_2
*1804 FILLER_10_221
*1805 FILLER_10_236
*1806 FILLER_10_262
*1807 FILLER_10_289
*1808 FILLER_10_304
*1809 FILLER_10_312
*1810 FILLER_10_314
*1811 FILLER_10_317
*1812 FILLER_10_319
*1813 FILLER_10_32
*1814 FILLER_10_326
*1815 FILLER_10_34
*1816 FILLER_10_360
*1817 FILLER_10_37
*1818 FILLER_10_383
*1819 FILLER_10_419
*1820 FILLER_10_423
*1821 FILLER_10_437
*1822 FILLER_10_45
*1823 FILLER_10_457
*1824 FILLER_10_49
*1825 FILLER_10_62
*1826 FILLER_11_126
*1827 FILLER_11_142
*1828 FILLER_11_158
*1829 FILLER_11_162
*1830 FILLER_11_207
*1831 FILLER_11_209
*1832 FILLER_11_267
*1833 FILLER_11_271
*1834 FILLER_11_273
*1835 FILLER_11_282
*1836 FILLER_11_286
*1837 FILLER_11_29
*1838 FILLER_11_299
*1839 FILLER_11_315
*1840 FILLER_11_322
*1841 FILLER_11_330
*1842 FILLER_11_344
*1843 FILLER_11_352
*1844 FILLER_11_368
*1845 FILLER_11_372
*1846 FILLER_11_418
*1847 FILLER_11_422
*1848 FILLER_11_430
*1849 FILLER_11_45
*1850 FILLER_11_457
*1851 FILLER_11_53
*1852 FILLER_11_55
*1853 FILLER_11_62
*1854 FILLER_11_8
*1855 FILLER_11_95
*1856 FILLER_12_13
*1857 FILLER_12_130
*1858 FILLER_12_162
*1859 FILLER_12_17
*1860 FILLER_12_170
*1861 FILLER_12_174
*1862 FILLER_12_177
*1863 FILLER_12_185
*1864 FILLER_12_2
*1865 FILLER_12_228
*1866 FILLER_12_23
*1867 FILLER_12_232
*1868 FILLER_12_234
*1869 FILLER_12_240
*1870 FILLER_12_244
*1871 FILLER_12_247
*1872 FILLER_12_279
*1873 FILLER_12_295
*1874 FILLER_12_303
*1875 FILLER_12_307
*1876 FILLER_12_31
*1877 FILLER_12_323
*1878 FILLER_12_331
*1879 FILLER_12_335
*1880 FILLER_12_337
*1881 FILLER_12_37
*1882 FILLER_12_370
*1883 FILLER_12_378
*1884 FILLER_12_382
*1885 FILLER_12_384
*1886 FILLER_12_387
*1887 FILLER_12_403
*1888 FILLER_12_411
*1889 FILLER_12_45
*1890 FILLER_12_457
*1891 FILLER_12_47
*1892 FILLER_12_6
*1893 FILLER_12_65
*1894 FILLER_12_79
*1895 FILLER_12_87
*1896 FILLER_12_91
*1897 FILLER_12_93
*1898 FILLER_13_104
*1899 FILLER_13_136
*1900 FILLER_13_142
*1901 FILLER_13_150
*1902 FILLER_13_154
*1903 FILLER_13_184
*1904 FILLER_13_200
*1905 FILLER_13_208
*1906 FILLER_13_212
*1907 FILLER_13_220
*1908 FILLER_13_224
*1909 FILLER_13_247
*1910 FILLER_13_255
*1911 FILLER_13_290
*1912 FILLER_13_294
*1913 FILLER_13_31
*1914 FILLER_13_329
*1915 FILLER_13_333
*1916 FILLER_13_346
*1917 FILLER_13_369
*1918 FILLER_13_385
*1919 FILLER_13_389
*1920 FILLER_13_419
*1921 FILLER_13_422
*1922 FILLER_13_430
*1923 FILLER_13_434
*1924 FILLER_13_436
*1925 FILLER_13_457
*1926 FILLER_13_51
*1927 FILLER_13_59
*1928 FILLER_13_72
*1929 FILLER_14_102
*1930 FILLER_14_104
*1931 FILLER_14_107
*1932 FILLER_14_117
*1933 FILLER_14_127
*1934 FILLER_14_129
*1935 FILLER_14_138
*1936 FILLER_14_154
*1937 FILLER_14_162
*1938 FILLER_14_172
*1939 FILLER_14_174
*1940 FILLER_14_177
*1941 FILLER_14_18
*1942 FILLER_14_181
*1943 FILLER_14_2
*1944 FILLER_14_241
*1945 FILLER_14_255
*1946 FILLER_14_26
*1947 FILLER_14_28
*1948 FILLER_14_303
*1949 FILLER_14_313
*1950 FILLER_14_322
*1951 FILLER_14_330
*1952 FILLER_14_350
*1953 FILLER_14_371
*1954 FILLER_14_379
*1955 FILLER_14_383
*1956 FILLER_14_387
*1957 FILLER_14_393
*1958 FILLER_14_416
*1959 FILLER_14_424
*1960 FILLER_14_428
*1961 FILLER_14_430
*1962 FILLER_14_457
*1963 FILLER_14_78
*1964 FILLER_14_94
*1965 FILLER_15_104
*1966 FILLER_15_108
*1967 FILLER_15_138
*1968 FILLER_15_148
*1969 FILLER_15_164
*1970 FILLER_15_172
*1971 FILLER_15_206
*1972 FILLER_15_212
*1973 FILLER_15_22
*1974 FILLER_15_228
*1975 FILLER_15_230
*1976 FILLER_15_260
*1977 FILLER_15_268
*1978 FILLER_15_272
*1979 FILLER_15_282
*1980 FILLER_15_284
*1981 FILLER_15_314
*1982 FILLER_15_329
*1983 FILLER_15_349
*1984 FILLER_15_35
*1985 FILLER_15_352
*1986 FILLER_15_39
*1987 FILLER_15_400
*1988 FILLER_15_416
*1989 FILLER_15_422
*1990 FILLER_15_426
*1991 FILLER_15_428
*1992 FILLER_15_45
*1993 FILLER_15_457
*1994 FILLER_15_61
*1995 FILLER_15_69
*1996 FILLER_15_72
*1997 FILLER_15_88
*1998 FILLER_16_113
*1999 FILLER_16_121
*2000 FILLER_16_154
*2001 FILLER_16_170
*2002 FILLER_16_177