* NGSPICE file created from pll_top.ext - technology: gf180mcuC

* Black-box entry subcircuit for gf180mcu_fd_sc_mcu7t5v0__fillcap_8 abstract view
.subckt gf180mcu_fd_sc_mcu7t5v0__fillcap_8 VDD VNW VPW VSS
.ends

* Black-box entry subcircuit for gf180mcu_fd_sc_mcu7t5v0__fill_2 abstract view
.subckt gf180mcu_fd_sc_mcu7t5v0__fill_2 VDD VNW VPW VSS
.ends

* Black-box entry subcircuit for gf180mcu_fd_sc_mcu7t5v0__fill_1 abstract view
.subckt gf180mcu_fd_sc_mcu7t5v0__fill_1 VDD VNW VPW VSS
.ends

* Black-box entry subcircuit for gf180mcu_fd_sc_mcu7t5v0__nand2_2 abstract view
.subckt gf180mcu_fd_sc_mcu7t5v0__nand2_2 A1 A2 ZN VDD VNW VPW VSS
.ends

* Black-box entry subcircuit for gf180mcu_fd_sc_mcu7t5v0__oai31_1 abstract view
.subckt gf180mcu_fd_sc_mcu7t5v0__oai31_1 A1 A2 A3 B ZN VDD VNW VPW VSS
.ends

* Black-box entry subcircuit for gf180mcu_fd_sc_mcu7t5v0__fillcap_4 abstract view
.subckt gf180mcu_fd_sc_mcu7t5v0__fillcap_4 VDD VNW VPW VSS
.ends

* Black-box entry subcircuit for gf180mcu_fd_sc_mcu7t5v0__filltie abstract view
.subckt gf180mcu_fd_sc_mcu7t5v0__filltie VDD VSS
.ends

* Black-box entry subcircuit for gf180mcu_fd_sc_mcu7t5v0__fillcap_32 abstract view
.subckt gf180mcu_fd_sc_mcu7t5v0__fillcap_32 VDD VNW VPW VSS
.ends

* Black-box entry subcircuit for gf180mcu_fd_sc_mcu7t5v0__nor2_1 abstract view
.subckt gf180mcu_fd_sc_mcu7t5v0__nor2_1 A1 A2 ZN VDD VNW VPW VSS
.ends

* Black-box entry subcircuit for gf180mcu_fd_sc_mcu7t5v0__clkbuf_1 abstract view
.subckt gf180mcu_fd_sc_mcu7t5v0__clkbuf_1 I Z VDD VNW VPW VSS
.ends

* Black-box entry subcircuit for gf180mcu_fd_sc_mcu7t5v0__nand2_1 abstract view
.subckt gf180mcu_fd_sc_mcu7t5v0__nand2_1 A1 A2 ZN VDD VNW VPW VSS
.ends

* Black-box entry subcircuit for gf180mcu_fd_sc_mcu7t5v0__buf_1 abstract view
.subckt gf180mcu_fd_sc_mcu7t5v0__buf_1 I Z VDD VNW VPW VSS
.ends

* Black-box entry subcircuit for gf180mcu_fd_sc_mcu7t5v0__aoi211_2 abstract view
.subckt gf180mcu_fd_sc_mcu7t5v0__aoi211_2 A1 A2 B C ZN VDD VNW VPW VSS
.ends

* Black-box entry subcircuit for gf180mcu_fd_sc_mcu7t5v0__fillcap_16 abstract view
.subckt gf180mcu_fd_sc_mcu7t5v0__fillcap_16 VDD VNW VPW VSS
.ends

* Black-box entry subcircuit for gf180mcu_fd_sc_mcu7t5v0__xnor2_1 abstract view
.subckt gf180mcu_fd_sc_mcu7t5v0__xnor2_1 A1 A2 ZN VDD VNW VPW VSS
.ends

* Black-box entry subcircuit for gf180mcu_fd_sc_mcu7t5v0__dffq_1 abstract view
.subckt gf180mcu_fd_sc_mcu7t5v0__dffq_1 D CLK Q VDD VNW VPW VSS
.ends

* Black-box entry subcircuit for gf180mcu_fd_sc_mcu7t5v0__inv_1 abstract view
.subckt gf180mcu_fd_sc_mcu7t5v0__inv_1 I ZN VDD VNW VPW VSS
.ends

* Black-box entry subcircuit for gf180mcu_fd_sc_mcu7t5v0__aoi22_1 abstract view
.subckt gf180mcu_fd_sc_mcu7t5v0__aoi22_1 A1 A2 B1 B2 ZN VDD VNW VPW VSS
.ends

* Black-box entry subcircuit for gf180mcu_fd_sc_mcu7t5v0__aoi21_1 abstract view
.subckt gf180mcu_fd_sc_mcu7t5v0__aoi21_1 A1 A2 B ZN VDD VNW VPW VSS
.ends

* Black-box entry subcircuit for gf180mcu_fd_sc_mcu7t5v0__oai21_1 abstract view
.subckt gf180mcu_fd_sc_mcu7t5v0__oai21_1 A1 A2 B ZN VDD VNW VPW VSS
.ends

* Black-box entry subcircuit for gf180mcu_fd_sc_mcu7t5v0__clkinv_1 abstract view
.subckt gf180mcu_fd_sc_mcu7t5v0__clkinv_1 I ZN VDD VNW VPW VSS
.ends

* Black-box entry subcircuit for gf180mcu_fd_sc_mcu7t5v0__xor2_1 abstract view
.subckt gf180mcu_fd_sc_mcu7t5v0__xor2_1 A1 A2 Z VDD VNW VPW VSS
.ends

* Black-box entry subcircuit for gf180mcu_fd_sc_mcu7t5v0__aoi221_1 abstract view
.subckt gf180mcu_fd_sc_mcu7t5v0__aoi221_1 A1 A2 B1 B2 C ZN VDD VNW VPW VSS
.ends

* Black-box entry subcircuit for gf180mcu_fd_sc_mcu7t5v0__aoi21_2 abstract view
.subckt gf180mcu_fd_sc_mcu7t5v0__aoi21_2 A1 A2 B ZN VDD VNW VPW VSS
.ends

* Black-box entry subcircuit for gf180mcu_fd_sc_mcu7t5v0__fillcap_64 abstract view
.subckt gf180mcu_fd_sc_mcu7t5v0__fillcap_64 VDD VNW VPW VSS
.ends

* Black-box entry subcircuit for gf180mcu_fd_sc_mcu7t5v0__oai32_1 abstract view
.subckt gf180mcu_fd_sc_mcu7t5v0__oai32_1 A1 A2 A3 B1 B2 ZN VDD VNW VPW VSS
.ends

* Black-box entry subcircuit for gf180mcu_fd_sc_mcu7t5v0__clkbuf_3 abstract view
.subckt gf180mcu_fd_sc_mcu7t5v0__clkbuf_3 I Z VDD VNW VPW VSS
.ends

* Black-box entry subcircuit for gf180mcu_fd_sc_mcu7t5v0__nand3_1 abstract view
.subckt gf180mcu_fd_sc_mcu7t5v0__nand3_1 A1 A2 A3 ZN VDD VNW VPW VSS
.ends

* Black-box entry subcircuit for gf180mcu_fd_sc_mcu7t5v0__clkbuf_2 abstract view
.subckt gf180mcu_fd_sc_mcu7t5v0__clkbuf_2 I Z VDD VNW VPW VSS
.ends

* Black-box entry subcircuit for gf180mcu_fd_sc_mcu7t5v0__and4_1 abstract view
.subckt gf180mcu_fd_sc_mcu7t5v0__and4_1 A1 A2 A3 A4 Z VDD VNW VPW VSS
.ends

* Black-box entry subcircuit for gf180mcu_fd_sc_mcu7t5v0__nor4_4 abstract view
.subckt gf180mcu_fd_sc_mcu7t5v0__nor4_4 A1 A2 A3 A4 ZN VDD VNW VPW VSS
.ends

* Black-box entry subcircuit for gf180mcu_fd_sc_mcu7t5v0__endcap abstract view
.subckt gf180mcu_fd_sc_mcu7t5v0__endcap VDD VSS
.ends

* Black-box entry subcircuit for gf180mcu_fd_sc_mcu7t5v0__clkbuf_8 abstract view
.subckt gf180mcu_fd_sc_mcu7t5v0__clkbuf_8 I Z VDD VNW VPW VSS
.ends

* Black-box entry subcircuit for gf180mcu_fd_sc_mcu7t5v0__nor3_1 abstract view
.subckt gf180mcu_fd_sc_mcu7t5v0__nor3_1 A1 A2 A3 ZN VDD VNW VPW VSS
.ends

* Black-box entry subcircuit for gf180mcu_fd_sc_mcu7t5v0__and3_1 abstract view
.subckt gf180mcu_fd_sc_mcu7t5v0__and3_1 A1 A2 A3 Z VDD VNW VPW VSS
.ends

* Black-box entry subcircuit for gf180mcu_fd_sc_mcu7t5v0__mux2_2 abstract view
.subckt gf180mcu_fd_sc_mcu7t5v0__mux2_2 I0 I1 S Z VDD VNW VPW VSS
.ends

* Black-box entry subcircuit for gf180mcu_fd_sc_mcu7t5v0__nand3_2 abstract view
.subckt gf180mcu_fd_sc_mcu7t5v0__nand3_2 A1 A2 A3 ZN VDD VNW VPW VSS
.ends

* Black-box entry subcircuit for gf180mcu_fd_sc_mcu7t5v0__buf_2 abstract view
.subckt gf180mcu_fd_sc_mcu7t5v0__buf_2 I Z VDD VNW VPW VSS
.ends

* Black-box entry subcircuit for gf180mcu_fd_sc_mcu7t5v0__oai22_2 abstract view
.subckt gf180mcu_fd_sc_mcu7t5v0__oai22_2 A1 A2 B1 B2 ZN VDD VNW VPW VSS
.ends

* Black-box entry subcircuit for gf180mcu_fd_sc_mcu7t5v0__or3_1 abstract view
.subckt gf180mcu_fd_sc_mcu7t5v0__or3_1 A1 A2 A3 Z VDD VNW VPW VSS
.ends

* Black-box entry subcircuit for gf180mcu_fd_sc_mcu7t5v0__aoi221_2 abstract view
.subckt gf180mcu_fd_sc_mcu7t5v0__aoi221_2 A1 A2 B1 B2 C ZN VDD VNW VPW VSS
.ends

* Black-box entry subcircuit for gf180mcu_fd_sc_mcu7t5v0__and2_1 abstract view
.subckt gf180mcu_fd_sc_mcu7t5v0__and2_1 A1 A2 Z VDD VNW VPW VSS
.ends

* Black-box entry subcircuit for gf180mcu_fd_sc_mcu7t5v0__oai211_1 abstract view
.subckt gf180mcu_fd_sc_mcu7t5v0__oai211_1 A1 A2 B C ZN VDD VNW VPW VSS
.ends

* Black-box entry subcircuit for gf180mcu_fd_sc_mcu7t5v0__oai22_1 abstract view
.subckt gf180mcu_fd_sc_mcu7t5v0__oai22_1 A1 A2 B1 B2 ZN VDD VNW VPW VSS
.ends

* Black-box entry subcircuit for gf180mcu_fd_sc_mcu7t5v0__nor3_2 abstract view
.subckt gf180mcu_fd_sc_mcu7t5v0__nor3_2 A1 A2 A3 ZN VDD VNW VPW VSS
.ends

* Black-box entry subcircuit for gf180mcu_fd_sc_mcu7t5v0__inv_2 abstract view
.subckt gf180mcu_fd_sc_mcu7t5v0__inv_2 I ZN VDD VNW VPW VSS
.ends

* Black-box entry subcircuit for gf180mcu_fd_sc_mcu7t5v0__nand4_2 abstract view
.subckt gf180mcu_fd_sc_mcu7t5v0__nand4_2 A1 A2 A3 A4 ZN VDD VNW VPW VSS
.ends

* Black-box entry subcircuit for gf180mcu_fd_sc_mcu7t5v0__oai21_2 abstract view
.subckt gf180mcu_fd_sc_mcu7t5v0__oai21_2 A1 A2 B ZN VDD VNW VPW VSS
.ends

* Black-box entry subcircuit for gf180mcu_fd_sc_mcu7t5v0__or2_1 abstract view
.subckt gf180mcu_fd_sc_mcu7t5v0__or2_1 A1 A2 Z VDD VNW VPW VSS
.ends

* Black-box entry subcircuit for gf180mcu_fd_sc_mcu7t5v0__or4_1 abstract view
.subckt gf180mcu_fd_sc_mcu7t5v0__or4_1 A1 A2 A3 A4 Z VDD VNW VPW VSS
.ends

* Black-box entry subcircuit for gf180mcu_fd_sc_mcu7t5v0__clkbuf_4 abstract view
.subckt gf180mcu_fd_sc_mcu7t5v0__clkbuf_4 I Z VDD VNW VPW VSS
.ends

* Black-box entry subcircuit for gf180mcu_fd_sc_mcu7t5v0__aoi222_2 abstract view
.subckt gf180mcu_fd_sc_mcu7t5v0__aoi222_2 A1 A2 B1 B2 C1 C2 ZN VDD VNW VPW VSS
.ends

* Black-box entry subcircuit for gf180mcu_fd_sc_mcu7t5v0__oai211_2 abstract view
.subckt gf180mcu_fd_sc_mcu7t5v0__oai211_2 A1 A2 B C ZN VDD VNW VPW VSS
.ends

* Black-box entry subcircuit for gf180mcu_fd_sc_mcu7t5v0__xnor2_2 abstract view
.subckt gf180mcu_fd_sc_mcu7t5v0__xnor2_2 A1 A2 ZN VDD VNW VPW VSS
.ends

* Black-box entry subcircuit for gf180mcu_fd_sc_mcu7t5v0__xor3_1 abstract view
.subckt gf180mcu_fd_sc_mcu7t5v0__xor3_1 A1 A2 A3 Z VDD VNW VPW VSS
.ends

* Black-box entry subcircuit for gf180mcu_fd_sc_mcu7t5v0__nand4_4 abstract view
.subckt gf180mcu_fd_sc_mcu7t5v0__nand4_4 A1 A2 A3 A4 ZN VDD VNW VPW VSS
.ends

* Black-box entry subcircuit for gf180mcu_fd_sc_mcu7t5v0__oai221_4 abstract view
.subckt gf180mcu_fd_sc_mcu7t5v0__oai221_4 A1 A2 B1 B2 C ZN VDD VNW VPW VSS
.ends

* Black-box entry subcircuit for gf180mcu_fd_sc_mcu7t5v0__clkinv_4 abstract view
.subckt gf180mcu_fd_sc_mcu7t5v0__clkinv_4 I ZN VDD VNW VPW VSS
.ends

* Black-box entry subcircuit for gf180mcu_fd_sc_mcu7t5v0__aoi221_4 abstract view
.subckt gf180mcu_fd_sc_mcu7t5v0__aoi221_4 A1 A2 B1 B2 C ZN VDD VNW VPW VSS
.ends

* Black-box entry subcircuit for gf180mcu_fd_sc_mcu7t5v0__inv_4 abstract view
.subckt gf180mcu_fd_sc_mcu7t5v0__inv_4 I ZN VDD VNW VPW VSS
.ends

* Black-box entry subcircuit for gf180mcu_fd_sc_mcu7t5v0__oai221_2 abstract view
.subckt gf180mcu_fd_sc_mcu7t5v0__oai221_2 A1 A2 B1 B2 C ZN VDD VNW VPW VSS
.ends

* Black-box entry subcircuit for gf180mcu_fd_sc_mcu7t5v0__nor4_1 abstract view
.subckt gf180mcu_fd_sc_mcu7t5v0__nor4_1 A1 A2 A3 A4 ZN VDD VNW VPW VSS
.ends

* Black-box entry subcircuit for gf180mcu_fd_sc_mcu7t5v0__oai211_4 abstract view
.subckt gf180mcu_fd_sc_mcu7t5v0__oai211_4 A1 A2 B C ZN VDD VNW VPW VSS
.ends

* Black-box entry subcircuit for gf180mcu_fd_sc_mcu7t5v0__nand4_1 abstract view
.subckt gf180mcu_fd_sc_mcu7t5v0__nand4_1 A1 A2 A3 A4 ZN VDD VNW VPW VSS
.ends

* Black-box entry subcircuit for gf180mcu_fd_sc_mcu7t5v0__inv_3 abstract view
.subckt gf180mcu_fd_sc_mcu7t5v0__inv_3 I ZN VDD VNW VPW VSS
.ends

* Black-box entry subcircuit for gf180mcu_fd_sc_mcu7t5v0__oai22_4 abstract view
.subckt gf180mcu_fd_sc_mcu7t5v0__oai22_4 A1 A2 B1 B2 ZN VDD VNW VPW VSS
.ends

* Black-box entry subcircuit for gf180mcu_fd_sc_mcu7t5v0__oai31_2 abstract view
.subckt gf180mcu_fd_sc_mcu7t5v0__oai31_2 A1 A2 A3 B ZN VDD VNW VPW VSS
.ends

* Black-box entry subcircuit for gf180mcu_fd_sc_mcu7t5v0__nor4_2 abstract view
.subckt gf180mcu_fd_sc_mcu7t5v0__nor4_2 A1 A2 A3 A4 ZN VDD VNW VPW VSS
.ends

* Black-box entry subcircuit for gf180mcu_fd_sc_mcu7t5v0__aoi22_2 abstract view
.subckt gf180mcu_fd_sc_mcu7t5v0__aoi22_2 A1 A2 B1 B2 ZN VDD VNW VPW VSS
.ends

* Black-box entry subcircuit for gf180mcu_fd_sc_mcu7t5v0__nor2_2 abstract view
.subckt gf180mcu_fd_sc_mcu7t5v0__nor2_2 A1 A2 ZN VDD VNW VPW VSS
.ends

* Black-box entry subcircuit for gf180mcu_fd_sc_mcu7t5v0__xor2_2 abstract view
.subckt gf180mcu_fd_sc_mcu7t5v0__xor2_2 A1 A2 Z VDD VNW VPW VSS
.ends

* Black-box entry subcircuit for gf180mcu_fd_sc_mcu7t5v0__oai31_4 abstract view
.subckt gf180mcu_fd_sc_mcu7t5v0__oai31_4 A1 A2 A3 B ZN VDD VNW VPW VSS
.ends

* Black-box entry subcircuit for gf180mcu_fd_sc_mcu7t5v0__dffq_2 abstract view
.subckt gf180mcu_fd_sc_mcu7t5v0__dffq_2 D CLK Q VDD VNW VPW VSS
.ends

* Black-box entry subcircuit for gf180mcu_fd_sc_mcu7t5v0__aoi222_1 abstract view
.subckt gf180mcu_fd_sc_mcu7t5v0__aoi222_1 A1 A2 B1 B2 C1 C2 ZN VDD VNW VPW VSS
.ends

* Black-box entry subcircuit for gf180mcu_fd_sc_mcu7t5v0__aoi211_4 abstract view
.subckt gf180mcu_fd_sc_mcu7t5v0__aoi211_4 A1 A2 B C ZN VDD VNW VPW VSS
.ends

* Black-box entry subcircuit for gf180mcu_fd_sc_mcu7t5v0__aoi211_1 abstract view
.subckt gf180mcu_fd_sc_mcu7t5v0__aoi211_1 A1 A2 B C ZN VDD VNW VPW VSS
.ends

* Black-box entry subcircuit for gf180mcu_fd_sc_mcu7t5v0__clkinv_2 abstract view
.subckt gf180mcu_fd_sc_mcu7t5v0__clkinv_2 I ZN VDD VNW VPW VSS
.ends

* Black-box entry subcircuit for gf180mcu_fd_sc_mcu7t5v0__oai33_1 abstract view
.subckt gf180mcu_fd_sc_mcu7t5v0__oai33_1 A1 A2 A3 B1 B2 B3 ZN VDD VNW VPW VSS
.ends

* Black-box entry subcircuit for gf180mcu_fd_sc_mcu7t5v0__oai222_4 abstract view
.subckt gf180mcu_fd_sc_mcu7t5v0__oai222_4 A1 A2 B1 B2 C1 C2 ZN VDD VNW VPW VSS
.ends

* Black-box entry subcircuit for gf180mcu_fd_sc_mcu7t5v0__oai32_2 abstract view
.subckt gf180mcu_fd_sc_mcu7t5v0__oai32_2 A1 A2 A3 B1 B2 ZN VDD VNW VPW VSS
.ends

* Black-box entry subcircuit for gf180mcu_fd_sc_mcu7t5v0__or4_2 abstract view
.subckt gf180mcu_fd_sc_mcu7t5v0__or4_2 A1 A2 A3 A4 Z VDD VNW VPW VSS
.ends

* Black-box entry subcircuit for gf180mcu_fd_sc_mcu7t5v0__nor3_4 abstract view
.subckt gf180mcu_fd_sc_mcu7t5v0__nor3_4 A1 A2 A3 ZN VDD VNW VPW VSS
.ends

* Black-box entry subcircuit for gf180mcu_fd_sc_mcu7t5v0__clkbuf_16 abstract view
.subckt gf180mcu_fd_sc_mcu7t5v0__clkbuf_16 I Z VDD VNW VPW VSS
.ends

* Black-box entry subcircuit for gf180mcu_fd_sc_mcu7t5v0__xor3_2 abstract view
.subckt gf180mcu_fd_sc_mcu7t5v0__xor3_2 A1 A2 A3 Z VDD VNW VPW VSS
.ends

* Black-box entry subcircuit for gf180mcu_fd_sc_mcu7t5v0__aoi21_4 abstract view
.subckt gf180mcu_fd_sc_mcu7t5v0__aoi21_4 A1 A2 B ZN VDD VNW VPW VSS
.ends

.subckt pll_top VDD VSS debug_dco_word[0] debug_dco_word[10] debug_dco_word[11] debug_dco_word[12]
+ debug_dco_word[13] debug_dco_word[14] debug_dco_word[15] debug_dco_word[16] debug_dco_word[17]
+ debug_dco_word[18] debug_dco_word[19] debug_dco_word[1] debug_dco_word[20] debug_dco_word[21]
+ debug_dco_word[22] debug_dco_word[23] debug_dco_word[24] debug_dco_word[25] debug_dco_word[26]
+ debug_dco_word[27] debug_dco_word[28] debug_dco_word[29] debug_dco_word[2] debug_dco_word[30]
+ debug_dco_word[31] debug_dco_word[3] debug_dco_word[4] debug_dco_word[5] debug_dco_word[6]
+ debug_dco_word[7] debug_dco_word[8] debug_dco_word[9] div_val[0] div_val[10] div_val[11]
+ div_val[12] div_val[13] div_val[14] div_val[15] div_val[16] div_val[17] div_val[18]
+ div_val[19] div_val[1] div_val[20] div_val[21] div_val[22] div_val[23] div_val[24]
+ div_val[25] div_val[26] div_val[27] div_val[28] div_val[29] div_val[2] div_val[30]
+ div_val[31] div_val[3] div_val[4] div_val[5] div_val[6] div_val[7] div_val[8] div_val[9]
+ initial_freq[0] initial_freq[10] initial_freq[11] initial_freq[12] initial_freq[13]
+ initial_freq[14] initial_freq[15] initial_freq[16] initial_freq[17] initial_freq[18]
+ initial_freq[19] initial_freq[1] initial_freq[20] initial_freq[21] initial_freq[22]
+ initial_freq[23] initial_freq[24] initial_freq[25] initial_freq[26] initial_freq[27]
+ initial_freq[28] initial_freq[29] initial_freq[2] initial_freq[30] initial_freq[31]
+ initial_freq[3] initial_freq[4] initial_freq[5] initial_freq[6] initial_freq[7]
+ initial_freq[8] initial_freq[9] lock_detect pll_out ref_clk rst_n sys_clk
XFILLER_54_247 VDD VDD VSS VSS gf180mcu_fd_sc_mcu7t5v0__fillcap_8
XFILLER_54_225 VDD VDD VSS VSS gf180mcu_fd_sc_mcu7t5v0__fill_2
XFILLER_39_299 VDD VDD VSS VSS gf180mcu_fd_sc_mcu7t5v0__fill_1
XFILLER_39_277 VDD VDD VSS VSS gf180mcu_fd_sc_mcu7t5v0__fill_2
XFILLER_39_222 VDD VDD VSS VSS gf180mcu_fd_sc_mcu7t5v0__fillcap_8
X_2106_ _0407_ _0432_ _0433_ VDD VDD VSS VSS gf180mcu_fd_sc_mcu7t5v0__nand2_2
X_2037_ net239 net286 net303 _0602_ _0374_ VDD VDD VSS VSS gf180mcu_fd_sc_mcu7t5v0__oai31_1
XFILLER_10_317 VDD VDD VSS VSS gf180mcu_fd_sc_mcu7t5v0__fill_2
XFILLER_22_177 VDD VDD VSS VSS gf180mcu_fd_sc_mcu7t5v0__fillcap_4
XTAP_TAPCELL_ROW_51_470 VDD VSS gf180mcu_fd_sc_mcu7t5v0__filltie
XFILLER_42_73 VDD VDD VSS VSS gf180mcu_fd_sc_mcu7t5v0__fill_1
XFILLER_9_148 VDD VDD VSS VSS gf180mcu_fd_sc_mcu7t5v0__fillcap_32
XFILLER_36_269 VDD VDD VSS VSS gf180mcu_fd_sc_mcu7t5v0__fillcap_32
XFILLER_36_247 VDD VDD VSS VSS gf180mcu_fd_sc_mcu7t5v0__fillcap_8
XTAP_TAPCELL_ROW_8_192 VDD VSS gf180mcu_fd_sc_mcu7t5v0__filltie
X_1270_ _0659_ _0667_ _0670_ VDD VDD VSS VSS gf180mcu_fd_sc_mcu7t5v0__nor2_1
X_1606_ _0580_ _0581_ _0986_ VDD VDD VSS VSS gf180mcu_fd_sc_mcu7t5v0__nor2_1
X_1399_ net325 _0783_ _0031_ VDD VDD VSS VSS gf180mcu_fd_sc_mcu7t5v0__nor2_1
XTAP_TAPCELL_ROW_57_507 VDD VSS gf180mcu_fd_sc_mcu7t5v0__filltie
Xfanout127 net128 net127 VDD VDD VSS VSS gf180mcu_fd_sc_mcu7t5v0__clkbuf_1
X_1537_ net373 net372 _0917_ VDD VDD VSS VSS gf180mcu_fd_sc_mcu7t5v0__nand2_1
Xfanout105 net112 net105 VDD VDD VSS VSS gf180mcu_fd_sc_mcu7t5v0__buf_1
Xfanout149 _0155_ net149 VDD VDD VSS VSS gf180mcu_fd_sc_mcu7t5v0__clkbuf_1
Xfanout116 _0827_ net116 VDD VDD VSS VSS gf180mcu_fd_sc_mcu7t5v0__buf_1
X_1468_ _0846_ _0847_ _0839_ _0841_ _0848_ VDD VDD VSS VSS gf180mcu_fd_sc_mcu7t5v0__aoi211_2
Xfanout138 net139 net138 VDD VDD VSS VSS gf180mcu_fd_sc_mcu7t5v0__clkbuf_1
XFILLER_27_269 VDD VDD VSS VSS gf180mcu_fd_sc_mcu7t5v0__fill_1
XFILLER_10_125 VDD VDD VSS VSS gf180mcu_fd_sc_mcu7t5v0__fillcap_4
XFILLER_10_103 VDD VDD VSS VSS gf180mcu_fd_sc_mcu7t5v0__fill_2
XFILLER_10_158 VDD VDD VSS VSS gf180mcu_fd_sc_mcu7t5v0__fillcap_16
XFILLER_12_65 VDD VDD VSS VSS gf180mcu_fd_sc_mcu7t5v0__fillcap_8
XFILLER_12_87 VDD VDD VSS VSS gf180mcu_fd_sc_mcu7t5v0__fillcap_4
XFILLER_58_383 VDD VDD VSS VSS gf180mcu_fd_sc_mcu7t5v0__fill_2
XTAP_TAPCELL_ROW_5_173 VDD VSS gf180mcu_fd_sc_mcu7t5v0__filltie
XFILLER_18_247 VDD VDD VSS VSS gf180mcu_fd_sc_mcu7t5v0__fillcap_16
XFILLER_33_206 VDD VDD VSS VSS gf180mcu_fd_sc_mcu7t5v0__fillcap_4
XFILLER_26_280 VDD VDD VSS VSS gf180mcu_fd_sc_mcu7t5v0__fill_1
XFILLER_18_269 VDD VDD VSS VSS gf180mcu_fd_sc_mcu7t5v0__fill_1
X_2440_ net288 net67 VDD VDD VSS VSS gf180mcu_fd_sc_mcu7t5v0__clkbuf_1
X_1322_ dco_inst.accumulator\[18\] net247 _0716_ VDD VDD VSS VSS gf180mcu_fd_sc_mcu7t5v0__xnor2_1
X_2371_ _0084_ clknet_4_3_0_sys_clk lf_inst.zero_error_count\[0\] VDD VDD VSS VSS
+ gf180mcu_fd_sc_mcu7t5v0__dffq_1
X_1253_ _0650_ _0652_ _0656_ VDD VDD VSS VSS gf180mcu_fd_sc_mcu7t5v0__nand2_1
XFILLER_64_342 VDD VDD VSS VSS gf180mcu_fd_sc_mcu7t5v0__fillcap_32
XFILLER_24_239 VDD VDD VSS VSS gf180mcu_fd_sc_mcu7t5v0__fillcap_4
XFILLER_24_206 VDD VDD VSS VSS gf180mcu_fd_sc_mcu7t5v0__fillcap_4
X_1184_ lf_inst.integrator\[1\] _0601_ VDD VDD VSS VSS gf180mcu_fd_sc_mcu7t5v0__inv_1
XTAP_TAPCELL_ROW_19_264 VDD VSS gf180mcu_fd_sc_mcu7t5v0__filltie
XTAP_TAPCELL_ROW_62_543 VDD VSS gf180mcu_fd_sc_mcu7t5v0__filltie
XFILLER_59_158 VDD VDD VSS VSS gf180mcu_fd_sc_mcu7t5v0__fill_2
XFILLER_59_136 VDD VDD VSS VSS gf180mcu_fd_sc_mcu7t5v0__fillcap_4
XFILLER_55_320 VDD VDD VSS VSS gf180mcu_fd_sc_mcu7t5v0__fill_2
XTAP_TAPCELL_ROW_2_154 VDD VSS gf180mcu_fd_sc_mcu7t5v0__filltie
XFILLER_15_206 VDD VDD VSS VSS gf180mcu_fd_sc_mcu7t5v0__fillcap_4
XFILLER_15_228 VDD VDD VSS VSS gf180mcu_fd_sc_mcu7t5v0__fill_2
X_1940_ _0286_ _0292_ _0293_ VDD VDD VSS VSS gf180mcu_fd_sc_mcu7t5v0__nand2_1
X_1871_ net331 net40 net230 _0230_ _0232_ VDD VDD VSS VSS gf180mcu_fd_sc_mcu7t5v0__aoi22_1
XFILLER_9_22 VDD VDD VSS VSS gf180mcu_fd_sc_mcu7t5v0__fill_1
XTAP_TAPCELL_ROW_16_245 VDD VSS gf180mcu_fd_sc_mcu7t5v0__filltie
XFILLER_21_209 VDD VDD VSS VSS gf180mcu_fd_sc_mcu7t5v0__fill_1
X_2423_ _0136_ net295 div_inst.counter\[16\] VDD VDD VSS VSS gf180mcu_fd_sc_mcu7t5v0__dffq_1
X_2354_ _0068_ clknet_4_13_0_sys_clk lf_inst.integrator\[18\] VDD VDD VSS VSS gf180mcu_fd_sc_mcu7t5v0__dffq_1
X_1305_ dco_inst.accumulator\[16\] net74 _0701_ VDD VDD VSS VSS gf180mcu_fd_sc_mcu7t5v0__nand2_1
X_2285_ _0560_ _0559_ _0365_ _0152_ VDD VDD VSS VSS gf180mcu_fd_sc_mcu7t5v0__aoi21_1
X_1236_ _0639_ _0641_ net345 _0642_ VDD VDD VSS VSS gf180mcu_fd_sc_mcu7t5v0__oai21_1
XFILLER_64_172 VDD VDD VSS VSS gf180mcu_fd_sc_mcu7t5v0__fillcap_8
XFILLER_52_323 VDD VDD VSS VSS gf180mcu_fd_sc_mcu7t5v0__fill_1
X_1167_ div_inst.counter\[9\] _0584_ VDD VDD VSS VSS gf180mcu_fd_sc_mcu7t5v0__clkinv_1
XFILLER_4_408 VDD VDD VSS VSS gf180mcu_fd_sc_mcu7t5v0__fillcap_4
XTAP_TAPCELL_ROW_13_226 VDD VSS gf180mcu_fd_sc_mcu7t5v0__filltie
XFILLER_50_73 VDD VDD VSS VSS gf180mcu_fd_sc_mcu7t5v0__fillcap_4
XFILLER_50_62 VDD VDD VSS VSS gf180mcu_fd_sc_mcu7t5v0__fillcap_4
XFILLER_11_286 VDD VDD VSS VSS gf180mcu_fd_sc_mcu7t5v0__fill_1
X_2070_ lf_inst.integrator\[7\] net135 _0402_ VDD VDD VSS VSS gf180mcu_fd_sc_mcu7t5v0__nor2_1
XFILLER_61_175 VDD VDD VSS VSS gf180mcu_fd_sc_mcu7t5v0__fill_2
XFILLER_61_142 VDD VDD VSS VSS gf180mcu_fd_sc_mcu7t5v0__fill_2
XFILLER_53_109 VDD VDD VSS VSS gf180mcu_fd_sc_mcu7t5v0__fillcap_4
XFILLER_34_312 VDD VDD VSS VSS gf180mcu_fd_sc_mcu7t5v0__fill_2
X_1923_ net333 net47 _0278_ VDD VDD VSS VSS gf180mcu_fd_sc_mcu7t5v0__nand2_1
X_1854_ net262 lf_inst.integrator\[15\] _0216_ VDD VDD VSS VSS gf180mcu_fd_sc_mcu7t5v0__xor2_1
X_1785_ unlock_timer\[2\] _0159_ _0160_ VDD VDD VSS VSS gf180mcu_fd_sc_mcu7t5v0__nor2_1
X_2406_ _0119_ clknet_4_8_0_sys_clk net91 VDD VDD VSS VSS gf180mcu_fd_sc_mcu7t5v0__dffq_1
X_2199_ _0609_ net199 _0513_ net229 _0296_ _0112_ VDD VDD VSS VSS gf180mcu_fd_sc_mcu7t5v0__aoi221_1
X_2268_ _1039_ net106 _0136_ VDD VDD VSS VSS gf180mcu_fd_sc_mcu7t5v0__nor2_1
X_2337_ _0054_ clknet_4_2_0_sys_clk unlock_timer\[4\] VDD VDD VSS VSS gf180mcu_fd_sc_mcu7t5v0__dffq_1
XFILLER_25_334 VDD VDD VSS VSS gf180mcu_fd_sc_mcu7t5v0__fill_2
XFILLER_25_301 VDD VDD VSS VSS gf180mcu_fd_sc_mcu7t5v0__fill_2
X_1219_ _0623_ _0624_ _0622_ _0628_ VDD VDD VSS VSS gf180mcu_fd_sc_mcu7t5v0__aoi21_2
XTAP_TAPCELL_ROW_10_207 VDD VSS gf180mcu_fd_sc_mcu7t5v0__filltie
XFILLER_4_238 VDD VDD VSS VSS gf180mcu_fd_sc_mcu7t5v0__fillcap_4
XFILLER_29_63 VDD VDD VSS VSS gf180mcu_fd_sc_mcu7t5v0__fillcap_4
XFILLER_0_444 VDD VDD VSS VSS gf180mcu_fd_sc_mcu7t5v0__fillcap_8
XFILLER_20_98 VDD VDD VSS VSS gf180mcu_fd_sc_mcu7t5v0__fillcap_4
XFILLER_45_40 VDD VDD VSS VSS gf180mcu_fd_sc_mcu7t5v0__fill_1
XFILLER_43_142 VDD VDD VSS VSS gf180mcu_fd_sc_mcu7t5v0__fillcap_16
XFILLER_28_194 VDD VDD VSS VSS gf180mcu_fd_sc_mcu7t5v0__fill_2
XFILLER_61_72 VDD VDD VSS VSS gf180mcu_fd_sc_mcu7t5v0__fillcap_64
XFILLER_6_34 VDD VDD VSS VSS gf180mcu_fd_sc_mcu7t5v0__fill_1
X_1570_ net151 _0898_ _0899_ _0950_ VDD VDD VSS VSS gf180mcu_fd_sc_mcu7t5v0__oai21_1
XFILLER_3_282 VDD VDD VSS VSS gf180mcu_fd_sc_mcu7t5v0__fill_2
XFILLER_54_407 VDD VDD VSS VSS gf180mcu_fd_sc_mcu7t5v0__fill_2
XFILLER_39_426 VDD VDD VSS VSS gf180mcu_fd_sc_mcu7t5v0__fill_1
X_2122_ net144 _0211_ _0447_ VDD VDD VSS VSS gf180mcu_fd_sc_mcu7t5v0__xor2_1
X_2053_ _0378_ _0381_ _0382_ _0372_ _0603_ _0387_ VDD VDD VSS VSS gf180mcu_fd_sc_mcu7t5v0__oai32_1
XFILLER_62_451 VDD VDD VSS VSS gf180mcu_fd_sc_mcu7t5v0__fillcap_4
XFILLER_34_153 VDD VDD VSS VSS gf180mcu_fd_sc_mcu7t5v0__fill_1
X_1906_ _0253_ _0258_ _0252_ _0262_ VDD VDD VSS VSS gf180mcu_fd_sc_mcu7t5v0__aoi21_1
X_1837_ lf_inst.integrator\[13\] _0200_ _0201_ VDD VDD VSS VSS gf180mcu_fd_sc_mcu7t5v0__xor2_1
X_1768_ net345 lf_inst.integrator\[6\] _1142_ VDD VDD VSS VSS gf180mcu_fd_sc_mcu7t5v0__nand2_1
XFILLER_57_212 VDD VDD VSS VSS gf180mcu_fd_sc_mcu7t5v0__fillcap_4
X_1699_ net176 _0975_ _1079_ VDD VDD VSS VSS gf180mcu_fd_sc_mcu7t5v0__xor2_1
XFILLER_25_175 VDD VDD VSS VSS gf180mcu_fd_sc_mcu7t5v0__fillcap_4
XFILLER_40_156 VDD VDD VSS VSS gf180mcu_fd_sc_mcu7t5v0__fill_2
Xoutput75 net75 debug_dco_word[17] VDD VDD VSS VSS gf180mcu_fd_sc_mcu7t5v0__clkbuf_3
XFILLER_31_64 VDD VDD VSS VSS gf180mcu_fd_sc_mcu7t5v0__fillcap_4
Xoutput86 net86 debug_dco_word[27] VDD VDD VSS VSS gf180mcu_fd_sc_mcu7t5v0__clkbuf_3
Xoutput97 net97 debug_dco_word[8] VDD VDD VSS VSS gf180mcu_fd_sc_mcu7t5v0__clkbuf_3
XTAP_TAPCELL_ROW_54_490 VDD VSS gf180mcu_fd_sc_mcu7t5v0__filltie
XTAP_TAPCELL_ROW_46_435 VDD VSS gf180mcu_fd_sc_mcu7t5v0__filltie
X_1622_ div_inst.counter\[30\] net153 _1000_ _1002_ VDD VDD VSS VSS gf180mcu_fd_sc_mcu7t5v0__nand3_1
XFILLER_12_370 VDD VDD VSS VSS gf180mcu_fd_sc_mcu7t5v0__fillcap_8
X_1553_ net172 _0892_ _0932_ _0933_ VDD VDD VSS VSS gf180mcu_fd_sc_mcu7t5v0__aoi21_1
Xfanout309 _0592_ net309 VDD VDD VSS VSS gf180mcu_fd_sc_mcu7t5v0__clkbuf_2
X_1484_ div_inst.counter\[20\] _0861_ _0864_ VDD VDD VSS VSS gf180mcu_fd_sc_mcu7t5v0__nand2_1
XFILLER_39_256 VDD VDD VSS VSS gf180mcu_fd_sc_mcu7t5v0__fill_1
X_2105_ _0409_ _0416_ _0420_ _0426_ _0432_ VDD VDD VSS VSS gf180mcu_fd_sc_mcu7t5v0__and4_1
X_2036_ net238 net286 net303 _0602_ _0373_ VDD VDD VSS VSS gf180mcu_fd_sc_mcu7t5v0__nor4_4
XFILLER_22_156 VDD VDD VSS VSS gf180mcu_fd_sc_mcu7t5v0__fill_2
XFILLER_45_204 VDD VDD VSS VSS gf180mcu_fd_sc_mcu7t5v0__fill_1
XTAP_TAPCELL_ROW_43_416 VDD VSS gf180mcu_fd_sc_mcu7t5v0__filltie
XFILLER_26_440 VDD VDD VSS VSS gf180mcu_fd_sc_mcu7t5v0__fill_1
XTAP_TAPCELL_ROW_51_471 VDD VSS gf180mcu_fd_sc_mcu7t5v0__filltie
XFILLER_42_96 VDD VDD VSS VSS gf180mcu_fd_sc_mcu7t5v0__fill_1
XFILLER_3_57 VDD VDD VSS VSS gf180mcu_fd_sc_mcu7t5v0__fillcap_8
XFILLER_3_24 VDD VDD VSS VSS gf180mcu_fd_sc_mcu7t5v0__fillcap_16
XTAP_TAPCELL_ROW_8_193 VDD VSS gf180mcu_fd_sc_mcu7t5v0__filltie
XFILLER_36_259 VDD VDD VSS VSS gf180mcu_fd_sc_mcu7t5v0__fill_2
X_1536_ net181 _0914_ _0915_ _0916_ VDD VDD VSS VSS gf180mcu_fd_sc_mcu7t5v0__oai21_1
X_1605_ net165 net169 net119 _0985_ VDD VDD VSS VSS gf180mcu_fd_sc_mcu7t5v0__nand3_1
XFILLER_8_193 VDD VDD VSS VSS gf180mcu_fd_sc_mcu7t5v0__fill_2
X_1398_ _0781_ _0782_ _0783_ VDD VDD VSS VSS gf180mcu_fd_sc_mcu7t5v0__xor2_1
XTAP_TAPCELL_ROW_57_508 VDD VSS gf180mcu_fd_sc_mcu7t5v0__filltie
Xfanout128 net129 net128 VDD VDD VSS VSS gf180mcu_fd_sc_mcu7t5v0__buf_1
Xfanout106 net107 net106 VDD VDD VSS VSS gf180mcu_fd_sc_mcu7t5v0__clkbuf_1
XFILLER_27_226 VDD VDD VSS VSS gf180mcu_fd_sc_mcu7t5v0__fill_2
XFILLER_27_204 VDD VDD VSS VSS gf180mcu_fd_sc_mcu7t5v0__fillcap_4
Xfanout117 _0988_ net117 VDD VDD VSS VSS gf180mcu_fd_sc_mcu7t5v0__buf_1
X_1467_ div_inst.counter\[26\] _0840_ _0843_ div_inst.counter\[25\] _0847_ VDD VDD
+ VSS VSS gf180mcu_fd_sc_mcu7t5v0__aoi22_1
Xfanout139 net143 net139 VDD VDD VSS VSS gf180mcu_fd_sc_mcu7t5v0__clkbuf_1
X_2019_ _0359_ _0360_ _0085_ VDD VDD VSS VSS gf180mcu_fd_sc_mcu7t5v0__nor2_1
XPHY_EDGE_ROW_19_Left_84 VDD VSS gf180mcu_fd_sc_mcu7t5v0__endcap
XFILLER_50_295 VDD VDD VSS VSS gf180mcu_fd_sc_mcu7t5v0__fillcap_8
XFILLER_6_119 VDD VDD VSS VSS gf180mcu_fd_sc_mcu7t5v0__fill_1
XFILLER_58_395 VDD VDD VSS VSS gf180mcu_fd_sc_mcu7t5v0__fill_2
XTAP_TAPCELL_ROW_5_174 VDD VSS gf180mcu_fd_sc_mcu7t5v0__filltie
XFILLER_53_40 VDD VDD VSS VSS gf180mcu_fd_sc_mcu7t5v0__fillcap_16
XFILLER_5_185 VDD VDD VSS VSS gf180mcu_fd_sc_mcu7t5v0__fillcap_8
X_1321_ dco_inst.accumulator\[18\] net247 _0715_ VDD VDD VSS VSS gf180mcu_fd_sc_mcu7t5v0__nand2_1
X_2370_ _0083_ clknet_4_3_0_sys_clk lf_inst.error_in\[1\] VDD VDD VSS VSS gf180mcu_fd_sc_mcu7t5v0__dffq_1
X_1252_ dco_inst.accumulator\[9\] net254 _0655_ VDD VDD VSS VSS gf180mcu_fd_sc_mcu7t5v0__xor2_1
XFILLER_64_376 VDD VDD VSS VSS gf180mcu_fd_sc_mcu7t5v0__fill_2
XTAP_TAPCELL_ROW_62_544 VDD VSS gf180mcu_fd_sc_mcu7t5v0__filltie
XFILLER_17_292 VDD VDD VSS VSS gf180mcu_fd_sc_mcu7t5v0__fill_2
XTAP_TAPCELL_ROW_19_265 VDD VSS gf180mcu_fd_sc_mcu7t5v0__filltie
X_1183_ net303 _0600_ VDD VDD VSS VSS gf180mcu_fd_sc_mcu7t5v0__clkinv_1
XFILLER_20_457 VDD VDD VSS VSS gf180mcu_fd_sc_mcu7t5v0__fill_1
Xclkbuf_4_10_0_sys_clk clknet_0_sys_clk clknet_4_10_0_sys_clk VDD VDD VSS VSS gf180mcu_fd_sc_mcu7t5v0__clkbuf_8
X_1519_ _0584_ _0896_ _0898_ net151 _0899_ VDD VDD VSS VSS gf180mcu_fd_sc_mcu7t5v0__aoi22_1
XPHY_EDGE_ROW_12_Right_12 VDD VSS gf180mcu_fd_sc_mcu7t5v0__endcap
XFILLER_55_343 VDD VDD VSS VSS gf180mcu_fd_sc_mcu7t5v0__fillcap_4
XTAP_TAPCELL_ROW_2_155 VDD VSS gf180mcu_fd_sc_mcu7t5v0__filltie
XPHY_EDGE_ROW_21_Right_21 VDD VSS gf180mcu_fd_sc_mcu7t5v0__endcap
XPHY_EDGE_ROW_4_Left_69 VDD VSS gf180mcu_fd_sc_mcu7t5v0__endcap
XFILLER_7_406 VDD VDD VSS VSS gf180mcu_fd_sc_mcu7t5v0__fillcap_8
XFILLER_11_457 VDD VDD VSS VSS gf180mcu_fd_sc_mcu7t5v0__fill_1
XPHY_EDGE_ROW_30_Right_30 VDD VSS gf180mcu_fd_sc_mcu7t5v0__endcap
XFILLER_7_428 VDD VDD VSS VSS gf180mcu_fd_sc_mcu7t5v0__fill_1
XFILLER_3_2 VDD VDD VSS VSS gf180mcu_fd_sc_mcu7t5v0__fillcap_16
XFILLER_2_177 VDD VDD VSS VSS gf180mcu_fd_sc_mcu7t5v0__fillcap_16
XFILLER_2_133 VDD VDD VSS VSS gf180mcu_fd_sc_mcu7t5v0__fillcap_4
XFILLER_61_346 VDD VDD VSS VSS gf180mcu_fd_sc_mcu7t5v0__fillcap_4
XFILLER_61_357 VDD VDD VSS VSS gf180mcu_fd_sc_mcu7t5v0__fillcap_16
XFILLER_0_36 VDD VDD VSS VSS gf180mcu_fd_sc_mcu7t5v0__fillcap_16
XTAP_TAPCELL_ROW_16_246 VDD VSS gf180mcu_fd_sc_mcu7t5v0__filltie
X_1870_ lf_inst.integrator\[16\] net196 _0231_ VDD VDD VSS VSS gf180mcu_fd_sc_mcu7t5v0__nand2_1
XFILLER_9_78 VDD VDD VSS VSS gf180mcu_fd_sc_mcu7t5v0__fill_1
XFILLER_9_89 VDD VDD VSS VSS gf180mcu_fd_sc_mcu7t5v0__fillcap_32
X_2353_ _0067_ clknet_4_9_0_sys_clk lf_inst.integrator\[17\] VDD VDD VSS VSS gf180mcu_fd_sc_mcu7t5v0__dffq_1
X_2422_ _0135_ net292 div_inst.counter\[15\] VDD VDD VSS VSS gf180mcu_fd_sc_mcu7t5v0__dffq_1
X_1166_ net170 _0583_ VDD VDD VSS VSS gf180mcu_fd_sc_mcu7t5v0__clkinv_1
XFILLER_37_343 VDD VDD VSS VSS gf180mcu_fd_sc_mcu7t5v0__fill_1
XFILLER_37_354 VDD VDD VSS VSS gf180mcu_fd_sc_mcu7t5v0__fill_1
X_1304_ net328 _0700_ _0019_ VDD VDD VSS VSS gf180mcu_fd_sc_mcu7t5v0__nor2_1
X_2284_ net283 _0351_ _0559_ VDD VDD VSS VSS gf180mcu_fd_sc_mcu7t5v0__nand2_1
X_1235_ _0635_ _0640_ _0641_ VDD VDD VSS VSS gf180mcu_fd_sc_mcu7t5v0__nor2_1
XFILLER_52_346 VDD VDD VSS VSS gf180mcu_fd_sc_mcu7t5v0__fillcap_4
XFILLER_20_210 VDD VDD VSS VSS gf180mcu_fd_sc_mcu7t5v0__fill_1
X_1999_ net324 net57 _0345_ VDD VDD VSS VSS gf180mcu_fd_sc_mcu7t5v0__nand2_1
XFILLER_20_243 VDD VDD VSS VSS gf180mcu_fd_sc_mcu7t5v0__fill_2
XFILLER_43_335 VDD VDD VSS VSS gf180mcu_fd_sc_mcu7t5v0__fill_2
XFILLER_34_31 VDD VDD VSS VSS gf180mcu_fd_sc_mcu7t5v0__fillcap_4
XFILLER_28_387 VDD VDD VSS VSS gf180mcu_fd_sc_mcu7t5v0__fill_2
XFILLER_59_72 VDD VDD VSS VSS gf180mcu_fd_sc_mcu7t5v0__fillcap_8
XFILLER_38_129 VDD VDD VSS VSS gf180mcu_fd_sc_mcu7t5v0__fill_2
XFILLER_38_107 VDD VDD VSS VSS gf180mcu_fd_sc_mcu7t5v0__fill_2
X_1922_ lf_inst.integrator\[22\] net205 _0277_ VDD VDD VSS VSS gf180mcu_fd_sc_mcu7t5v0__nand2_1
X_1853_ _0207_ _0210_ _0209_ _0215_ VDD VDD VSS VSS gf180mcu_fd_sc_mcu7t5v0__aoi21_1
X_1784_ net148 _0158_ _0159_ _0051_ VDD VDD VSS VSS gf180mcu_fd_sc_mcu7t5v0__nor3_1
X_2405_ _0118_ clknet_4_8_0_sys_clk net90 VDD VDD VSS VSS gf180mcu_fd_sc_mcu7t5v0__dffq_1
X_2336_ _0053_ clknet_4_2_0_sys_clk unlock_timer\[3\] VDD VDD VSS VSS gf180mcu_fd_sc_mcu7t5v0__dffq_1