* NGSPICE file created from pll_top.ext - technology: sky130A

* Black-box entry subcircuit for sky130_fd_sc_hd__decap_3 abstract view
.subckt sky130_fd_sc_hd__decap_3 VGND VNB VPB VPWR
.ends

* Black-box entry subcircuit for sky130_ef_sc_hd__decap_12 abstract view
.subckt sky130_ef_sc_hd__decap_12 VPWR VGND VPB VNB
.ends

* Black-box entry subcircuit for sky130_fd_sc_hd__nor2_1 abstract view
.subckt sky130_fd_sc_hd__nor2_1 A B VGND VNB VPB VPWR Y
.ends

* Black-box entry subcircuit for sky130_fd_sc_hd__dfxtp_1 abstract view
.subckt sky130_fd_sc_hd__dfxtp_1 CLK D VGND VNB VPB VPWR Q
.ends

* Black-box entry subcircuit for sky130_fd_sc_hd__tapvpwrvgnd_1 abstract view
.subckt sky130_fd_sc_hd__tapvpwrvgnd_1 VGND VPWR
.ends

* Black-box entry subcircuit for sky130_fd_sc_hd__decap_8 abstract view
.subckt sky130_fd_sc_hd__decap_8 VGND VNB VPB VPWR
.ends

* Black-box entry subcircuit for sky130_fd_sc_hd__fill_1 abstract view
.subckt sky130_fd_sc_hd__fill_1 VGND VNB VPB VPWR
.ends

* Black-box entry subcircuit for sky130_fd_sc_hd__decap_4 abstract view
.subckt sky130_fd_sc_hd__decap_4 VGND VNB VPB VPWR
.ends

* Black-box entry subcircuit for sky130_fd_sc_hd__nand2_1 abstract view
.subckt sky130_fd_sc_hd__nand2_1 A B VGND VNB VPB VPWR Y
.ends

* Black-box entry subcircuit for sky130_fd_sc_hd__fill_2 abstract view
.subckt sky130_fd_sc_hd__fill_2 VGND VNB VPB VPWR
.ends

* Black-box entry subcircuit for sky130_fd_sc_hd__a211o_1 abstract view
.subckt sky130_fd_sc_hd__a211o_1 A1 A2 B1 C1 VGND VNB VPB VPWR X
.ends

* Black-box entry subcircuit for sky130_fd_sc_hd__buf_1 abstract view
.subckt sky130_fd_sc_hd__buf_1 A VGND VNB VPB VPWR X
.ends

* Black-box entry subcircuit for sky130_fd_sc_hd__or2_1 abstract view
.subckt sky130_fd_sc_hd__or2_1 A B VGND VNB VPB VPWR X
.ends

* Black-box entry subcircuit for sky130_fd_sc_hd__a21oi_1 abstract view
.subckt sky130_fd_sc_hd__a21oi_1 A1 A2 B1 VGND VNB VPB VPWR Y
.ends

* Black-box entry subcircuit for sky130_fd_sc_hd__buf_6 abstract view
.subckt sky130_fd_sc_hd__buf_6 A VGND VNB VPB VPWR X
.ends

* Black-box entry subcircuit for sky130_fd_sc_hd__decap_6 abstract view
.subckt sky130_fd_sc_hd__decap_6 VGND VNB VPB VPWR
.ends

* Black-box entry subcircuit for sky130_fd_sc_hd__o221a_1 abstract view
.subckt sky130_fd_sc_hd__o221a_1 A1 A2 B1 B2 C1 VGND VNB VPB VPWR X
.ends

* Black-box entry subcircuit for sky130_fd_sc_hd__or4b_1 abstract view
.subckt sky130_fd_sc_hd__or4b_1 A B C D_N VGND VNB VPB VPWR X
.ends

* Black-box entry subcircuit for sky130_fd_sc_hd__and2_1 abstract view
.subckt sky130_fd_sc_hd__and2_1 A B VGND VNB VPB VPWR X
.ends

* Black-box entry subcircuit for sky130_fd_sc_hd__nand3_1 abstract view
.subckt sky130_fd_sc_hd__nand3_1 A B C VGND VNB VPB VPWR Y
.ends

* Black-box entry subcircuit for sky130_fd_sc_hd__xor2_1 abstract view
.subckt sky130_fd_sc_hd__xor2_1 A B VGND VNB VPB VPWR X
.ends

* Black-box entry subcircuit for sky130_fd_sc_hd__and3_1 abstract view
.subckt sky130_fd_sc_hd__and3_1 A B C VGND VNB VPB VPWR X
.ends

* Black-box entry subcircuit for sky130_fd_sc_hd__and4_1 abstract view
.subckt sky130_fd_sc_hd__and4_1 A B C D VGND VNB VPB VPWR X
.ends

* Black-box entry subcircuit for sky130_fd_sc_hd__dlygate4sd3_1 abstract view
.subckt sky130_fd_sc_hd__dlygate4sd3_1 A VGND VNB VPB VPWR X
.ends

* Black-box entry subcircuit for sky130_fd_sc_hd__o21a_1 abstract view
.subckt sky130_fd_sc_hd__o21a_1 A1 A2 B1 VGND VNB VPB VPWR X
.ends

* Black-box entry subcircuit for sky130_fd_sc_hd__a21o_1 abstract view
.subckt sky130_fd_sc_hd__a21o_1 A1 A2 B1 VGND VNB VPB VPWR X
.ends

* Black-box entry subcircuit for sky130_fd_sc_hd__buf_2 abstract view
.subckt sky130_fd_sc_hd__buf_2 A VGND VNB VPB VPWR X
.ends

* Black-box entry subcircuit for sky130_fd_sc_hd__o32a_1 abstract view
.subckt sky130_fd_sc_hd__o32a_1 A1 A2 A3 B1 B2 VGND VNB VPB VPWR X
.ends

* Black-box entry subcircuit for sky130_fd_sc_hd__and4b_1 abstract view
.subckt sky130_fd_sc_hd__and4b_1 A_N B C D VGND VNB VPB VPWR X
.ends

* Black-box entry subcircuit for sky130_fd_sc_hd__a31o_1 abstract view
.subckt sky130_fd_sc_hd__a31o_1 A1 A2 A3 B1 VGND VNB VPB VPWR X
.ends

* Black-box entry subcircuit for sky130_fd_sc_hd__dlymetal6s2s_1 abstract view
.subckt sky130_fd_sc_hd__dlymetal6s2s_1 A VGND VNB VPB VPWR X
.ends

* Black-box entry subcircuit for sky130_fd_sc_hd__clkbuf_2 abstract view
.subckt sky130_fd_sc_hd__clkbuf_2 A VGND VNB VPB VPWR X
.ends

* Black-box entry subcircuit for sky130_fd_sc_hd__or3_1 abstract view
.subckt sky130_fd_sc_hd__or3_1 A B C VGND VNB VPB VPWR X
.ends

* Black-box entry subcircuit for sky130_fd_sc_hd__o22ai_1 abstract view
.subckt sky130_fd_sc_hd__o22ai_1 A1 A2 B1 B2 VGND VNB VPB VPWR Y
.ends

* Black-box entry subcircuit for sky130_fd_sc_hd__clkbuf_8 abstract view
.subckt sky130_fd_sc_hd__clkbuf_8 A VGND VNB VPB VPWR X
.ends

* Black-box entry subcircuit for sky130_fd_sc_hd__and3b_1 abstract view
.subckt sky130_fd_sc_hd__and3b_1 A_N B C VGND VNB VPB VPWR X
.ends

* Black-box entry subcircuit for sky130_fd_sc_hd__o21ai_1 abstract view
.subckt sky130_fd_sc_hd__o21ai_1 A1 A2 B1 VGND VNB VPB VPWR Y
.ends

* Black-box entry subcircuit for sky130_fd_sc_hd__a221o_1 abstract view
.subckt sky130_fd_sc_hd__a221o_1 A1 A2 B1 B2 C1 VGND VNB VPB VPWR X
.ends

* Black-box entry subcircuit for sky130_fd_sc_hd__xnor2_2 abstract view
.subckt sky130_fd_sc_hd__xnor2_2 A B VGND VNB VPB VPWR Y
.ends

* Black-box entry subcircuit for sky130_fd_sc_hd__a22oi_1 abstract view
.subckt sky130_fd_sc_hd__a22oi_1 A1 A2 B1 B2 VGND VNB VPB VPWR Y
.ends

* Black-box entry subcircuit for sky130_fd_sc_hd__nor3b_2 abstract view
.subckt sky130_fd_sc_hd__nor3b_2 A B C_N VGND VNB VPB VPWR Y
.ends

* Black-box entry subcircuit for sky130_fd_sc_hd__clkbuf_1 abstract view
.subckt sky130_fd_sc_hd__clkbuf_1 A VGND VNB VPB VPWR X
.ends

* Black-box entry subcircuit for sky130_fd_sc_hd__o311a_4 abstract view
.subckt sky130_fd_sc_hd__o311a_4 A1 A2 A3 B1 C1 VGND VNB VPB VPWR X
.ends

* Black-box entry subcircuit for sky130_fd_sc_hd__a21bo_1 abstract view
.subckt sky130_fd_sc_hd__a21bo_1 A1 A2 B1_N VGND VNB VPB VPWR X
.ends

* Black-box entry subcircuit for sky130_fd_sc_hd__mux2_2 abstract view
.subckt sky130_fd_sc_hd__mux2_2 A0 A1 S VGND VNB VPB VPWR X
.ends

* Black-box entry subcircuit for sky130_fd_sc_hd__a2bb2o_1 abstract view
.subckt sky130_fd_sc_hd__a2bb2o_1 A1_N A2_N B1 B2 VGND VNB VPB VPWR X
.ends

* Black-box entry subcircuit for sky130_fd_sc_hd__a22o_1 abstract view
.subckt sky130_fd_sc_hd__a22o_1 A1 A2 B1 B2 VGND VNB VPB VPWR X
.ends

* Black-box entry subcircuit for sky130_fd_sc_hd__o22a_1 abstract view
.subckt sky130_fd_sc_hd__o22a_1 A1 A2 B1 B2 VGND VNB VPB VPWR X
.ends

* Black-box entry subcircuit for sky130_fd_sc_hd__and2b_1 abstract view
.subckt sky130_fd_sc_hd__and2b_1 A_N B VGND VNB VPB VPWR X
.ends

* Black-box entry subcircuit for sky130_fd_sc_hd__xnor2_1 abstract view
.subckt sky130_fd_sc_hd__xnor2_1 A B VGND VNB VPB VPWR Y
.ends

* Black-box entry subcircuit for sky130_fd_sc_hd__xor2_2 abstract view
.subckt sky130_fd_sc_hd__xor2_2 A B VGND VNB VPB VPWR X
.ends

* Black-box entry subcircuit for sky130_fd_sc_hd__inv_2 abstract view
.subckt sky130_fd_sc_hd__inv_2 A VGND VNB VPB VPWR Y
.ends

* Black-box entry subcircuit for sky130_fd_sc_hd__bufinv_16 abstract view
.subckt sky130_fd_sc_hd__bufinv_16 A VGND VNB VPB VPWR Y
.ends

* Black-box entry subcircuit for sky130_fd_sc_hd__o211ai_2 abstract view
.subckt sky130_fd_sc_hd__o211ai_2 A1 A2 B1 C1 VGND VNB VPB VPWR Y
.ends

* Black-box entry subcircuit for sky130_fd_sc_hd__o41a_1 abstract view
.subckt sky130_fd_sc_hd__o41a_1 A1 A2 A3 A4 B1 VGND VNB VPB VPWR X
.ends

* Black-box entry subcircuit for sky130_fd_sc_hd__nand2b_1 abstract view
.subckt sky130_fd_sc_hd__nand2b_1 A_N B VGND VNB VPB VPWR Y
.ends

* Black-box entry subcircuit for sky130_fd_sc_hd__a221oi_2 abstract view
.subckt sky130_fd_sc_hd__a221oi_2 A1 A2 B1 B2 C1 VGND VNB VPB VPWR Y
.ends

* Black-box entry subcircuit for sky130_fd_sc_hd__o21ba_1 abstract view
.subckt sky130_fd_sc_hd__o21ba_1 A1 A2 B1_N VGND VNB VPB VPWR X
.ends

* Black-box entry subcircuit for sky130_fd_sc_hd__clkinvlp_4 abstract view
.subckt sky130_fd_sc_hd__clkinvlp_4 A VGND VNB VPB VPWR Y
.ends

* Black-box entry subcircuit for sky130_fd_sc_hd__a31oi_1 abstract view
.subckt sky130_fd_sc_hd__a31oi_1 A1 A2 A3 B1 VGND VNB VPB VPWR Y
.ends

* Black-box entry subcircuit for sky130_fd_sc_hd__nor3b_1 abstract view
.subckt sky130_fd_sc_hd__nor3b_1 A B C_N VGND VNB VPB VPWR Y
.ends

* Black-box entry subcircuit for sky130_fd_sc_hd__inv_6 abstract view
.subckt sky130_fd_sc_hd__inv_6 A VGND VNB VPB VPWR Y
.ends

* Black-box entry subcircuit for sky130_fd_sc_hd__dfxtp_2 abstract view
.subckt sky130_fd_sc_hd__dfxtp_2 CLK D VGND VNB VPB VPWR Q
.ends

* Black-box entry subcircuit for sky130_fd_sc_hd__a21boi_1 abstract view
.subckt sky130_fd_sc_hd__a21boi_1 A1 A2 B1_N VGND VNB VPB VPWR Y
.ends

* Black-box entry subcircuit for sky130_fd_sc_hd__a2111o_1 abstract view
.subckt sky130_fd_sc_hd__a2111o_1 A1 A2 B1 C1 D1 VGND VNB VPB VPWR X
.ends

* Black-box entry subcircuit for sky130_fd_sc_hd__a311o_1 abstract view
.subckt sky130_fd_sc_hd__a311o_1 A1 A2 A3 B1 C1 VGND VNB VPB VPWR X
.ends

* Black-box entry subcircuit for sky130_fd_sc_hd__or4_2 abstract view
.subckt sky130_fd_sc_hd__or4_2 A B C D VGND VNB VPB VPWR X
.ends

* Black-box entry subcircuit for sky130_fd_sc_hd__a21boi_4 abstract view
.subckt sky130_fd_sc_hd__a21boi_4 A1 A2 B1_N VGND VNB VPB VPWR Y
.ends

* Black-box entry subcircuit for sky130_fd_sc_hd__o211a_1 abstract view
.subckt sky130_fd_sc_hd__o211a_1 A1 A2 B1 C1 VGND VNB VPB VPWR X
.ends

* Black-box entry subcircuit for sky130_fd_sc_hd__or3b_1 abstract view
.subckt sky130_fd_sc_hd__or3b_1 A B C_N VGND VNB VPB VPWR X
.ends

* Black-box entry subcircuit for sky130_fd_sc_hd__o311a_1 abstract view
.subckt sky130_fd_sc_hd__o311a_1 A1 A2 A3 B1 C1 VGND VNB VPB VPWR X
.ends

* Black-box entry subcircuit for sky130_fd_sc_hd__or4_1 abstract view
.subckt sky130_fd_sc_hd__or4_1 A B C D VGND VNB VPB VPWR X
.ends

* Black-box entry subcircuit for sky130_fd_sc_hd__o211ai_1 abstract view
.subckt sky130_fd_sc_hd__o211ai_1 A1 A2 B1 C1 VGND VNB VPB VPWR Y
.ends

* Black-box entry subcircuit for sky130_fd_sc_hd__nand3b_1 abstract view
.subckt sky130_fd_sc_hd__nand3b_1 A_N B C VGND VNB VPB VPWR Y
.ends

* Black-box entry subcircuit for sky130_fd_sc_hd__mux2_1 abstract view
.subckt sky130_fd_sc_hd__mux2_1 A0 A1 S VGND VNB VPB VPWR X
.ends

* Black-box entry subcircuit for sky130_fd_sc_hd__dfrtp_1 abstract view
.subckt sky130_fd_sc_hd__dfrtp_1 CLK D RESET_B VGND VNB VPB VPWR Q
.ends

* Black-box entry subcircuit for sky130_fd_sc_hd__clkinv_4 abstract view
.subckt sky130_fd_sc_hd__clkinv_4 A VGND VNB VPB VPWR Y
.ends

* Black-box entry subcircuit for sky130_fd_sc_hd__o31ai_1 abstract view
.subckt sky130_fd_sc_hd__o31ai_1 A1 A2 A3 B1 VGND VNB VPB VPWR Y
.ends

* Black-box entry subcircuit for sky130_fd_sc_hd__nor4_1 abstract view
.subckt sky130_fd_sc_hd__nor4_1 A B C D VGND VNB VPB VPWR Y
.ends

* Black-box entry subcircuit for sky130_fd_sc_hd__o31a_1 abstract view
.subckt sky130_fd_sc_hd__o31a_1 A1 A2 A3 B1 VGND VNB VPB VPWR X
.ends

* Black-box entry subcircuit for sky130_fd_sc_hd__a32o_1 abstract view
.subckt sky130_fd_sc_hd__a32o_1 A1 A2 A3 B1 B2 VGND VNB VPB VPWR X
.ends

* Black-box entry subcircuit for sky130_fd_sc_hd__nor3_1 abstract view
.subckt sky130_fd_sc_hd__nor3_1 A B C VGND VNB VPB VPWR Y
.ends

* Black-box entry subcircuit for sky130_fd_sc_hd__a21oi_4 abstract view
.subckt sky130_fd_sc_hd__a21oi_4 A1 A2 B1 VGND VNB VPB VPWR Y
.ends

* Black-box entry subcircuit for sky130_fd_sc_hd__a211oi_2 abstract view
.subckt sky130_fd_sc_hd__a211oi_2 A1 A2 B1 C1 VGND VNB VPB VPWR Y
.ends

* Black-box entry subcircuit for sky130_fd_sc_hd__a22oi_2 abstract view
.subckt sky130_fd_sc_hd__a22oi_2 A1 A2 B1 B2 VGND VNB VPB VPWR Y
.ends

* Black-box entry subcircuit for sky130_fd_sc_hd__o21bai_1 abstract view
.subckt sky130_fd_sc_hd__o21bai_1 A1 A2 B1_N VGND VNB VPB VPWR Y
.ends

* Black-box entry subcircuit for sky130_fd_sc_hd__xnor2_4 abstract view
.subckt sky130_fd_sc_hd__xnor2_4 A B VGND VNB VPB VPWR Y
.ends

* Black-box entry subcircuit for sky130_fd_sc_hd__or3_2 abstract view
.subckt sky130_fd_sc_hd__or3_2 A B C VGND VNB VPB VPWR X
.ends

* Black-box entry subcircuit for sky130_fd_sc_hd__o2bb2a_1 abstract view
.subckt sky130_fd_sc_hd__o2bb2a_1 A1_N A2_N B1 B2 VGND VNB VPB VPWR X
.ends

* Black-box entry subcircuit for sky130_fd_sc_hd__or4_4 abstract view
.subckt sky130_fd_sc_hd__or4_4 A B C D VGND VNB VPB VPWR X
.ends

* Black-box entry subcircuit for sky130_fd_sc_hd__buf_4 abstract view
.subckt sky130_fd_sc_hd__buf_4 A VGND VNB VPB VPWR X
.ends

* Black-box entry subcircuit for sky130_fd_sc_hd__a21oi_2 abstract view
.subckt sky130_fd_sc_hd__a21oi_2 A1 A2 B1 VGND VNB VPB VPWR Y
.ends

* Black-box entry subcircuit for sky130_fd_sc_hd__a221oi_4 abstract view
.subckt sky130_fd_sc_hd__a221oi_4 A1 A2 B1 B2 C1 VGND VNB VPB VPWR Y
.ends

* Black-box entry subcircuit for sky130_fd_sc_hd__and4bb_1 abstract view
.subckt sky130_fd_sc_hd__and4bb_1 A_N B_N C D VGND VNB VPB VPWR X
.ends

* Black-box entry subcircuit for sky130_fd_sc_hd__a2111oi_1 abstract view
.subckt sky130_fd_sc_hd__a2111oi_1 A1 A2 B1 C1 D1 VGND VNB VPB VPWR Y
.ends

* Black-box entry subcircuit for sky130_fd_sc_hd__a211oi_1 abstract view
.subckt sky130_fd_sc_hd__a211oi_1 A1 A2 B1 C1 VGND VNB VPB VPWR Y
.ends

* Black-box entry subcircuit for sky130_fd_sc_hd__nor2_4 abstract view
.subckt sky130_fd_sc_hd__nor2_4 A B VGND VNB VPB VPWR Y
.ends

* Black-box entry subcircuit for sky130_fd_sc_hd__or3b_4 abstract view
.subckt sky130_fd_sc_hd__or3b_4 A B C_N VGND VNB VPB VPWR X
.ends

* Black-box entry subcircuit for sky130_fd_sc_hd__o221ai_1 abstract view
.subckt sky130_fd_sc_hd__o221ai_1 A1 A2 B1 B2 C1 VGND VNB VPB VPWR Y
.ends

* Black-box entry subcircuit for sky130_fd_sc_hd__or4b_4 abstract view
.subckt sky130_fd_sc_hd__or4b_4 A B C D_N VGND VNB VPB VPWR X
.ends

* Black-box entry subcircuit for sky130_fd_sc_hd__dlygate4sd1_1 abstract view
.subckt sky130_fd_sc_hd__dlygate4sd1_1 A VGND VNB VPB VPWR X
.ends

* Black-box entry subcircuit for sky130_fd_sc_hd__clkbuf_16 abstract view
.subckt sky130_fd_sc_hd__clkbuf_16 A VGND VNB VPB VPWR X
.ends

* Black-box entry subcircuit for sky130_fd_sc_hd__a31oi_2 abstract view
.subckt sky130_fd_sc_hd__a31oi_2 A1 A2 A3 B1 VGND VNB VPB VPWR Y
.ends

* Black-box entry subcircuit for sky130_fd_sc_hd__o2111ai_4 abstract view
.subckt sky130_fd_sc_hd__o2111ai_4 A1 A2 B1 C1 D1 VGND VNB VPB VPWR Y
.ends

* Black-box entry subcircuit for sky130_fd_sc_hd__a21boi_2 abstract view
.subckt sky130_fd_sc_hd__a21boi_2 A1 A2 B1_N VGND VNB VPB VPWR Y
.ends

* Black-box entry subcircuit for sky130_fd_sc_hd__or3_4 abstract view
.subckt sky130_fd_sc_hd__or3_4 A B C VGND VNB VPB VPWR X
.ends

* Black-box entry subcircuit for sky130_fd_sc_hd__or4bb_4 abstract view
.subckt sky130_fd_sc_hd__or4bb_4 A B C_N D_N VGND VNB VPB VPWR X
.ends

* Black-box entry subcircuit for sky130_fd_sc_hd__buf_8 abstract view
.subckt sky130_fd_sc_hd__buf_8 A VGND VNB VPB VPWR X
.ends

* Black-box entry subcircuit for sky130_fd_sc_hd__nand4b_1 abstract view
.subckt sky130_fd_sc_hd__nand4b_1 A_N B C D VGND VNB VPB VPWR Y
.ends

.subckt pll_top VGND VPWR debug_dco_word[0] debug_dco_word[10] debug_dco_word[11]
+ debug_dco_word[12] debug_dco_word[13] debug_dco_word[14] debug_dco_word[15] debug_dco_word[16]
+ debug_dco_word[17] debug_dco_word[18] debug_dco_word[19] debug_dco_word[1] debug_dco_word[20]
+ debug_dco_word[21] debug_dco_word[22] debug_dco_word[23] debug_dco_word[24] debug_dco_word[25]
+ debug_dco_word[26] debug_dco_word[27] debug_dco_word[28] debug_dco_word[29] debug_dco_word[2]
+ debug_dco_word[30] debug_dco_word[31] debug_dco_word[3] debug_dco_word[4] debug_dco_word[5]
+ debug_dco_word[6] debug_dco_word[7] debug_dco_word[8] debug_dco_word[9] div_val[0]
+ div_val[10] div_val[11] div_val[12] div_val[13] div_val[14] div_val[15] div_val[16]
+ div_val[17] div_val[18] div_val[19] div_val[1] div_val[20] div_val[21] div_val[22]
+ div_val[23] div_val[24] div_val[25] div_val[26] div_val[27] div_val[28] div_val[29]
+ div_val[2] div_val[30] div_val[31] div_val[3] div_val[4] div_val[5] div_val[6] div_val[7]
+ div_val[8] div_val[9] initial_freq[0] initial_freq[10] initial_freq[11] initial_freq[12]
+ initial_freq[13] initial_freq[14] initial_freq[15] initial_freq[16] initial_freq[17]
+ initial_freq[18] initial_freq[19] initial_freq[1] initial_freq[20] initial_freq[21]
+ initial_freq[22] initial_freq[23] initial_freq[24] initial_freq[25] initial_freq[26]
+ initial_freq[27] initial_freq[28] initial_freq[29] initial_freq[2] initial_freq[30]
+ initial_freq[31] initial_freq[3] initial_freq[4] initial_freq[5] initial_freq[6]
+ initial_freq[7] initial_freq[8] initial_freq[9] lock_detect pll_out ref_clk rst_n
+ sys_clk
XFILLER_54_269 VGND VGND VPWR VPWR sky130_fd_sc_hd__decap_3
XFILLER_54_203 VPWR VGND VPWR VGND sky130_ef_sc_hd__decap_12
X_2037_ _0897_ net103 VGND VGND VPWR VPWR _0123_ sky130_fd_sc_hd__nor2_1
X_2106_ clknet_4_4_0_sys_clk _0044_ VGND VGND VPWR VPWR lf_inst.integrator\[8\] sky130_fd_sc_hd__dfxtp_1
XTAP_TAPCELL_ROW_60_492 VGND VPWR sky130_fd_sc_hd__tapvpwrvgnd_1
XFILLER_22_111 VPWR VGND VPWR VGND sky130_ef_sc_hd__decap_12
XFILLER_22_166 VGND VGND VPWR VPWR sky130_fd_sc_hd__decap_3
XFILLER_45_225 VPWR VGND VPWR VGND sky130_ef_sc_hd__decap_12
XFILLER_26_96 VPWR VGND VPWR VGND sky130_ef_sc_hd__decap_12
XFILLER_26_85 VGND VGND VPWR VPWR sky130_fd_sc_hd__decap_8
XFILLER_26_74 VGND VGND VPWR VPWR sky130_fd_sc_hd__fill_1
XFILLER_13_111 VGND VGND VPWR VPWR sky130_fd_sc_hd__fill_1
XFILLER_5_332 VGND VGND VPWR VPWR sky130_fd_sc_hd__decap_4
XTAP_TAPCELL_ROW_8_181 VGND VPWR sky130_fd_sc_hd__tapvpwrvgnd_1
X_1270_ net257 _0654_ VGND VGND VPWR VPWR _0655_ sky130_fd_sc_hd__nand2_1
XFILLER_36_247 VGND VGND VPWR VPWR sky130_fd_sc_hd__fill_2
X_1606_ net309 net149 _0976_ _0977_ VGND VGND VPWR VPWR _0047_ sky130_fd_sc_hd__a211o_1
X_1468_ _0831_ _0850_ VGND VGND VPWR VPWR _0851_ sky130_fd_sc_hd__nand2_1
XFILLER_47_18 VPWR VGND VPWR VGND sky130_ef_sc_hd__decap_12
Xfanout105 net111 VGND VGND VPWR VPWR net105 sky130_fd_sc_hd__buf_1
Xfanout127 net130 VGND VGND VPWR VPWR net127 sky130_fd_sc_hd__buf_1
Xfanout149 net150 VGND VGND VPWR VPWR net149 sky130_fd_sc_hd__buf_1
X_1399_ net121 _0781_ VGND VGND VPWR VPWR _0782_ sky130_fd_sc_hd__or2_1
X_1537_ net120 _0809_ div_inst.counter\[5\] VGND VGND VPWR VPWR _0920_ sky130_fd_sc_hd__a21oi_1
Xfanout138 net140 VGND VGND VPWR VPWR net138 sky130_fd_sc_hd__buf_6
XFILLER_27_247 VGND VGND VPWR VPWR sky130_fd_sc_hd__decap_4
XFILLER_27_225 VGND VGND VPWR VPWR sky130_fd_sc_hd__decap_4
XFILLER_37_73 VGND VGND VPWR VPWR sky130_fd_sc_hd__decap_6
XTAP_TAPCELL_ROW_5_162 VGND VPWR sky130_fd_sc_hd__tapvpwrvgnd_1
XFILLER_53_72 VGND VGND VPWR VPWR sky130_fd_sc_hd__decap_3
XFILLER_37_95 VPWR VGND VPWR VGND sky130_ef_sc_hd__decap_12
XTAP_TAPCELL_ROW_28_297 VGND VPWR sky130_fd_sc_hd__tapvpwrvgnd_1
XFILLER_5_140 VGND VGND VPWR VPWR sky130_fd_sc_hd__decap_4
XTAP_TAPCELL_ROW_11_197 VGND VPWR sky130_fd_sc_hd__tapvpwrvgnd_1
X_1253_ _0623_ _0631_ _0639_ _0628_ _0633_ VGND VGND VPWR VPWR _0640_ sky130_fd_sc_hd__o221a_1
XFILLER_56_309 VPWR VGND VPWR VGND sky130_ef_sc_hd__decap_12
X_1322_ _0698_ _0699_ _0701_ _0704_ VGND VGND VPWR VPWR _0705_ sky130_fd_sc_hd__or4b_1
X_1184_ dco_inst.accumulator\[20\] net79 VGND VGND VPWR VPWR _0579_ sky130_fd_sc_hd__nand2_1
XFILLER_24_206 VGND VGND VPWR VPWR sky130_fd_sc_hd__fill_2
XFILLER_17_291 VGND VGND VPWR VPWR sky130_fd_sc_hd__decap_6
XTAP_TAPCELL_ROW_19_242 VGND VPWR sky130_fd_sc_hd__tapvpwrvgnd_1
XFILLER_32_283 VGND VGND VPWR VPWR sky130_fd_sc_hd__fill_1
XFILLER_59_125 VPWR VGND VPWR VGND sky130_ef_sc_hd__decap_12
XFILLER_58_39 VGND VGND VPWR VPWR sky130_fd_sc_hd__decap_8
XTAP_TAPCELL_ROW_2_143 VGND VPWR sky130_fd_sc_hd__tapvpwrvgnd_1
XTAP_TAPCELL_ROW_25_278 VGND VPWR sky130_fd_sc_hd__tapvpwrvgnd_1
XFILLER_15_217 VGND VGND VPWR VPWR sky130_fd_sc_hd__fill_1
XFILLER_15_239 VGND VGND VPWR VPWR sky130_fd_sc_hd__fill_1
XFILLER_23_42 VGND VGND VPWR VPWR sky130_fd_sc_hd__decap_8
XFILLER_38_309 VGND VGND VPWR VPWR sky130_fd_sc_hd__fill_1
XFILLER_2_121 VGND VGND VPWR VPWR sky130_fd_sc_hd__fill_2
XFILLER_0_57 VPWR VGND VPWR VGND sky130_ef_sc_hd__decap_12
X_1940_ _0155_ _0156_ net132 VGND VGND VPWR VPWR _0375_ sky130_fd_sc_hd__a21oi_1
XFILLER_9_55 VGND VGND VPWR VPWR sky130_fd_sc_hd__fill_1
X_1871_ _0963_ net134 VGND VGND VPWR VPWR _0316_ sky130_fd_sc_hd__and2_1
XFILLER_50_3 VPWR VGND VPWR VGND sky130_ef_sc_hd__decap_12
X_1236_ _0608_ _0617_ _0618_ VGND VGND VPWR VPWR _0625_ sky130_fd_sc_hd__nand3_1
XFILLER_49_191 VGND VGND VPWR VPWR sky130_fd_sc_hd__fill_2
X_1305_ net25 _0678_ VGND VGND VPWR VPWR _0688_ sky130_fd_sc_hd__xor2_1
X_1167_ _0562_ _0563_ _0564_ VGND VGND VPWR VPWR _0021_ sky130_fd_sc_hd__a21oi_1
X_1098_ dco_inst.accumulator\[8\] net97 VGND VGND VPWR VPWR _0505_ sky130_fd_sc_hd__nand2_1
XFILLER_60_29 VGND VGND VPWR VPWR sky130_fd_sc_hd__fill_2
XFILLER_20_253 VGND VGND VPWR VPWR sky130_fd_sc_hd__fill_2
XPHY_EDGE_ROW_8_Left_69 VGND VGND VPWR VPWR sky130_fd_sc_hd__decap_3
XFILLER_43_323 VPWR VGND VPWR VGND sky130_ef_sc_hd__decap_12
XFILLER_18_64 VPWR VGND VPWR VGND sky130_ef_sc_hd__decap_12
XFILLER_34_52 VGND VGND VPWR VPWR sky130_fd_sc_hd__fill_2
XFILLER_50_73 VGND VGND VPWR VPWR sky130_fd_sc_hd__decap_8
XFILLER_7_279 VGND VGND VPWR VPWR sky130_fd_sc_hd__fill_1
XFILLER_38_139 VGND VGND VPWR VPWR sky130_fd_sc_hd__fill_1
X_2070_ clknet_4_4_0_sys_clk _0011_ VGND VGND VPWR VPWR dco_inst.accumulator\[7\]
+ sky130_fd_sc_hd__dfxtp_1
XFILLER_15_6 VGND VGND VPWR VPWR sky130_fd_sc_hd__fill_1
XTAP_TAPCELL_ROW_44_395 VGND VPWR sky130_fd_sc_hd__tapvpwrvgnd_1
X_1923_ _1022_ _1021_ _0358_ VGND VGND VPWR VPWR _0360_ sky130_fd_sc_hd__and3_1
X_1785_ _0246_ _0247_ VGND VGND VPWR VPWR _0073_ sky130_fd_sc_hd__nor2_1
X_1854_ net295 net148 _0301_ _0959_ VGND VGND VPWR VPWR _0088_ sky130_fd_sc_hd__a211o_1
X_1219_ _0593_ _0594_ _0601_ _0602_ VGND VGND VPWR VPWR _0610_ sky130_fd_sc_hd__and4_1
X_2199_ net216 _0130_ VGND VGND VPWR VPWR div_inst.counter\[16\] sky130_fd_sc_hd__dfxtp_1
XFILLER_52_197 VGND VGND VPWR VPWR sky130_fd_sc_hd__decap_4
XFILLER_52_164 VGND VGND VPWR VPWR sky130_fd_sc_hd__decap_6
XTAP_TAPCELL_ROW_35_340 VGND VPWR sky130_fd_sc_hd__tapvpwrvgnd_1
Xhold41 net77 VGND VGND VPWR VPWR net316 sky130_fd_sc_hd__dlygate4sd3_1
Xhold63 lf_inst.zero_error_count\[0\] VGND VGND VPWR VPWR net338 sky130_fd_sc_hd__dlygate4sd3_1
XFILLER_29_30 VGND VGND VPWR VPWR sky130_fd_sc_hd__decap_4
Xhold30 lf_inst.integrator\[1\] VGND VGND VPWR VPWR net305 sky130_fd_sc_hd__dlygate4sd3_1
Xhold52 unlock_timer\[1\] VGND VGND VPWR VPWR net327 sky130_fd_sc_hd__dlygate4sd3_1
XTAP_TAPCELL_ROW_58_476 VGND VPWR sky130_fd_sc_hd__tapvpwrvgnd_1
XTAP_TAPCELL_ROW_41_376 VGND VPWR sky130_fd_sc_hd__tapvpwrvgnd_1
X_1570_ net270 _0897_ _0898_ net264 _0952_ VGND VGND VPWR VPWR _0953_ sky130_fd_sc_hd__o221a_1
XFILLER_3_293 VGND VGND VPWR VPWR sky130_fd_sc_hd__decap_3
X_2053_ _0851_ net108 VGND VGND VPWR VPWR _0139_ sky130_fd_sc_hd__nor2_1
X_2122_ clknet_4_15_0_sys_clk _0060_ VGND VGND VPWR VPWR lf_inst.integrator\[23\]
+ sky130_fd_sc_hd__dfxtp_1
XFILLER_13_3 VGND VGND VPWR VPWR sky130_fd_sc_hd__decap_8
XFILLER_19_161 VGND VGND VPWR VPWR sky130_fd_sc_hd__fill_1
XFILLER_34_197 VGND VGND VPWR VPWR sky130_fd_sc_hd__fill_2
XTAP_TAPCELL_ROW_32_321 VGND VPWR sky130_fd_sc_hd__tapvpwrvgnd_1
XFILLER_22_337 VGND VGND VPWR VPWR sky130_fd_sc_hd__decap_3
X_1768_ _0229_ _0232_ _0230_ VGND VGND VPWR VPWR _0235_ sky130_fd_sc_hd__o21a_1
X_1837_ lf_inst.integrator\[4\] net136 VGND VGND VPWR VPWR _0287_ sky130_fd_sc_hd__nand2_1
X_1906_ net72 net152 _1003_ VGND VGND VPWR VPWR _0346_ sky130_fd_sc_hd__a21o_1
XFILLER_57_212 VGND VGND VPWR VPWR sky130_fd_sc_hd__decap_3
X_1699_ _0173_ _0174_ VGND VGND VPWR VPWR _0175_ sky130_fd_sc_hd__nor2_1
XFILLER_40_101 VGND VGND VPWR VPWR sky130_fd_sc_hd__decap_6
XFILLER_15_43 VGND VGND VPWR VPWR sky130_fd_sc_hd__fill_1
XFILLER_31_86 VGND VGND VPWR VPWR sky130_fd_sc_hd__fill_1
XFILLER_31_75 VGND VGND VPWR VPWR sky130_fd_sc_hd__decap_3
Xoutput75 net75 VGND VGND VPWR VPWR debug_dco_word[17] sky130_fd_sc_hd__buf_2
XFILLER_0_230 VGND VGND VPWR VPWR sky130_fd_sc_hd__decap_4
Xoutput86 net86 VGND VGND VPWR VPWR debug_dco_word[27] sky130_fd_sc_hd__buf_2
XFILLER_56_83 VGND VGND VPWR VPWR sky130_fd_sc_hd__fill_1
XFILLER_56_50 VGND VGND VPWR VPWR sky130_fd_sc_hd__fill_1
Xoutput97 net97 VGND VGND VPWR VPWR debug_dco_word[8] sky130_fd_sc_hd__buf_2
XFILLER_31_167 VGND VGND VPWR VPWR sky130_fd_sc_hd__fill_1
XFILLER_16_153 VPWR VGND VPWR VGND sky130_ef_sc_hd__decap_12
XFILLER_16_186 VGND VGND VPWR VPWR sky130_fd_sc_hd__fill_1
XFILLER_16_197 VGND VGND VPWR VPWR sky130_fd_sc_hd__decap_8
X_1622_ _0979_ net280 _0985_ net142 _0457_ VGND VGND VPWR VPWR _0991_ sky130_fd_sc_hd__o32a_1
X_1484_ div_inst.counter\[18\] net114 div_inst.counter\[19\] VGND VGND VPWR VPWR _0867_
+ sky130_fd_sc_hd__a21oi_1
X_1553_ _0869_ _0871_ _0878_ _0935_ VGND VGND VPWR VPWR _0936_ sky130_fd_sc_hd__and4b_1
XFILLER_54_215 VGND VGND VPWR VPWR sky130_fd_sc_hd__decap_8
X_2105_ clknet_4_1_0_sys_clk _0043_ VGND VGND VPWR VPWR lf_inst.integrator\[7\] sky130_fd_sc_hd__dfxtp_1
X_2036_ _0899_ net103 VGND VGND VPWR VPWR _0122_ sky130_fd_sc_hd__nor2_1
XTAP_TAPCELL_ROW_60_493 VGND VPWR sky130_fd_sc_hd__tapvpwrvgnd_1
XFILLER_22_123 VPWR VGND VPWR VGND sky130_ef_sc_hd__decap_12
XFILLER_22_145 VGND VGND VPWR VPWR sky130_fd_sc_hd__decap_8
XFILLER_53_281 VGND VGND VPWR VPWR sky130_fd_sc_hd__fill_1
XFILLER_45_237 VGND VGND VPWR VPWR sky130_fd_sc_hd__fill_2
XPHY_EDGE_ROW_37_Left_98 VGND VGND VPWR VPWR sky130_fd_sc_hd__decap_3
XFILLER_13_123 VGND VGND VPWR VPWR sky130_fd_sc_hd__decap_4
XFILLER_42_85 VGND VGND VPWR VPWR sky130_fd_sc_hd__decap_8
XPHY_EDGE_ROW_39_Left_100 VGND VGND VPWR VPWR sky130_fd_sc_hd__decap_3
XFILLER_3_57 VPWR VGND VPWR VGND sky130_ef_sc_hd__decap_12
X_1605_ net227 net34 VGND VGND VPWR VPWR _0977_ sky130_fd_sc_hd__and2_1
X_1536_ _0811_ _0918_ VGND VGND VPWR VPWR _0919_ sky130_fd_sc_hd__nand2_1
X_1467_ div_inst.counter\[24\] _0827_ _0828_ div_inst.counter\[25\] VGND VGND VPWR
+ VPWR _0850_ sky130_fd_sc_hd__a31o_1
Xfanout117 div_inst.counter\[22\] VGND VGND VPWR VPWR net117 sky130_fd_sc_hd__dlymetal6s2s_1
Xfanout128 net130 VGND VGND VPWR VPWR net128 sky130_fd_sc_hd__buf_1
Xfanout106 net110 VGND VGND VPWR VPWR net106 sky130_fd_sc_hd__clkbuf_2
X_1398_ net23 _0659_ VGND VGND VPWR VPWR _0781_ sky130_fd_sc_hd__xor2_1
Xfanout139 net191 VGND VGND VPWR VPWR net139 sky130_fd_sc_hd__clkbuf_2
X_2019_ _0441_ _0442_ VGND VGND VPWR VPWR _0443_ sky130_fd_sc_hd__nand2_1
XFILLER_35_281 VPWR VGND VPWR VGND sky130_ef_sc_hd__decap_12
XFILLER_33_207 VGND VGND VPWR VPWR sky130_fd_sc_hd__decap_4
XTAP_TAPCELL_ROW_5_163 VGND VPWR sky130_fd_sc_hd__tapvpwrvgnd_1
XFILLER_41_295 VGND VGND VPWR VPWR sky130_fd_sc_hd__fill_1
XTAP_TAPCELL_ROW_28_298 VGND VPWR sky130_fd_sc_hd__tapvpwrvgnd_1
XFILLER_5_185 VGND VGND VPWR VPWR sky130_fd_sc_hd__decap_4
XTAP_TAPCELL_ROW_11_198 VGND VPWR sky130_fd_sc_hd__tapvpwrvgnd_1
X_1252_ _0624_ _0631_ _0632_ VGND VGND VPWR VPWR _0639_ sky130_fd_sc_hd__or3_1
X_1321_ div_inst.counter\[25\] _0700_ _0703_ div_inst.counter\[24\] VGND VGND VPWR
+ VPWR _0704_ sky130_fd_sc_hd__o22ai_1
XFILLER_49_351 VGND VGND VPWR VPWR sky130_fd_sc_hd__fill_1
X_1183_ dco_inst.accumulator\[20\] net79 VGND VGND VPWR VPWR _0578_ sky130_fd_sc_hd__or2_1
XTAP_TAPCELL_ROW_19_243 VGND VPWR sky130_fd_sc_hd__tapvpwrvgnd_1
XFILLER_32_295 VGND VGND VPWR VPWR sky130_fd_sc_hd__fill_1
XFILLER_59_137 VGND VGND VPWR VPWR sky130_fd_sc_hd__decap_8
XFILLER_58_29 VGND VGND VPWR VPWR sky130_fd_sc_hd__decap_3
Xclkbuf_4_10_0_sys_clk clknet_0_sys_clk VGND VGND VPWR VPWR clknet_4_10_0_sys_clk
+ sky130_fd_sc_hd__clkbuf_8
X_1519_ div_inst.counter\[3\] _0808_ VGND VGND VPWR VPWR _0902_ sky130_fd_sc_hd__nor2_1
XPHY_EDGE_ROW_12_Right_12 VGND VGND VPWR VPWR sky130_fd_sc_hd__decap_3
XTAP_TAPCELL_ROW_2_144 VGND VPWR sky130_fd_sc_hd__tapvpwrvgnd_1
XPHY_EDGE_ROW_21_Right_21 VGND VGND VPWR VPWR sky130_fd_sc_hd__decap_3
XTAP_TAPCELL_ROW_25_279 VGND VPWR sky130_fd_sc_hd__tapvpwrvgnd_1
XFILLER_23_21 VGND VGND VPWR VPWR sky130_fd_sc_hd__fill_1
XPHY_EDGE_ROW_30_Right_30 VGND VGND VPWR VPWR sky130_fd_sc_hd__decap_3
XFILLER_46_343 VGND VGND VPWR VPWR sky130_fd_sc_hd__fill_1
XFILLER_0_69 VPWR VGND VPWR VGND sky130_ef_sc_hd__decap_12
XTAP_TAPCELL_ROW_16_224 VGND VPWR sky130_fd_sc_hd__tapvpwrvgnd_1
X_1870_ _0963_ net134 VGND VGND VPWR VPWR _0315_ sky130_fd_sc_hd__nor2_1
XFILLER_43_3 VPWR VGND VPWR VGND sky130_ef_sc_hd__decap_12
XPHY_EDGE_ROW_24_Left_85 VGND VGND VPWR VPWR sky130_fd_sc_hd__decap_3
X_1235_ _0622_ _0623_ VGND VGND VPWR VPWR _0624_ sky130_fd_sc_hd__nand2_1
X_1304_ _0685_ _0686_ _0681_ VGND VGND VPWR VPWR _0687_ sky130_fd_sc_hd__and3b_1
X_1166_ _0562_ _0563_ net248 VGND VGND VPWR VPWR _0564_ sky130_fd_sc_hd__o21ai_1
X_1097_ dco_inst.accumulator\[8\] net97 VGND VGND VPWR VPWR _0504_ sky130_fd_sc_hd__or2_1
X_1999_ _0415_ _0418_ VGND VGND VPWR VPWR _0425_ sky130_fd_sc_hd__or2_1
XFILLER_43_335 VGND VGND VPWR VPWR sky130_fd_sc_hd__fill_1
XTAP_TAPCELL_ROW_38_360 VGND VPWR sky130_fd_sc_hd__tapvpwrvgnd_1
XFILLER_18_32 VGND VGND VPWR VPWR sky130_fd_sc_hd__fill_2
XFILLER_18_76 VGND VGND VPWR VPWR sky130_fd_sc_hd__fill_1
XFILLER_50_41 VGND VGND VPWR VPWR sky130_fd_sc_hd__decap_6
XFILLER_7_225 VGND VGND VPWR VPWR sky130_fd_sc_hd__fill_1
XFILLER_50_85 VGND VGND VPWR VPWR sky130_fd_sc_hd__decap_4
XFILLER_50_52 VGND VGND VPWR VPWR sky130_fd_sc_hd__decap_3
XTAP_TAPCELL_ROW_44_396 VGND VPWR sky130_fd_sc_hd__tapvpwrvgnd_1
XFILLER_34_302 VGND VGND VPWR VPWR sky130_fd_sc_hd__decap_6
X_1922_ _1021_ _1022_ _0358_ VGND VGND VPWR VPWR _0359_ sky130_fd_sc_hd__a21oi_1
X_1784_ net297 _0245_ net141 VGND VGND VPWR VPWR _0247_ sky130_fd_sc_hd__o21ai_1
X_1853_ _0299_ _0300_ VGND VGND VPWR VPWR _0301_ sky130_fd_sc_hd__nor2_1