* NGSPICE file created from pll_top.ext - technology: sky130A

* Black-box entry subcircuit for sky130_fd_sc_hd__fill_1 abstract view
.subckt sky130_fd_sc_hd__fill_1 VGND VNB VPB VPWR
.ends

* Black-box entry subcircuit for sky130_fd_sc_hd__a221o_1 abstract view
.subckt sky130_fd_sc_hd__a221o_1 A1 A2 B1 B2 C1 VGND VNB VPB VPWR X
.ends

* Black-box entry subcircuit for sky130_fd_sc_hd__dfxtp_1 abstract view
.subckt sky130_fd_sc_hd__dfxtp_1 CLK D VGND VNB VPB VPWR Q
.ends

* Black-box entry subcircuit for sky130_fd_sc_hd__tapvpwrvgnd_1 abstract view
.subckt sky130_fd_sc_hd__tapvpwrvgnd_1 VGND VPWR
.ends

* Black-box entry subcircuit for sky130_ef_sc_hd__decap_12 abstract view
.subckt sky130_ef_sc_hd__decap_12 VPWR VGND VPB VNB
.ends

* Black-box entry subcircuit for sky130_fd_sc_hd__decap_8 abstract view
.subckt sky130_fd_sc_hd__decap_8 VGND VNB VPB VPWR
.ends

* Black-box entry subcircuit for sky130_fd_sc_hd__decap_6 abstract view
.subckt sky130_fd_sc_hd__decap_6 VGND VNB VPB VPWR
.ends

* Black-box entry subcircuit for sky130_fd_sc_hd__decap_3 abstract view
.subckt sky130_fd_sc_hd__decap_3 VGND VNB VPB VPWR
.ends

* Black-box entry subcircuit for sky130_fd_sc_hd__and2_1 abstract view
.subckt sky130_fd_sc_hd__and2_1 A B VGND VNB VPB VPWR X
.ends

* Black-box entry subcircuit for sky130_fd_sc_hd__mux2_1 abstract view
.subckt sky130_fd_sc_hd__mux2_1 A0 A1 S VGND VNB VPB VPWR X
.ends

* Black-box entry subcircuit for sky130_fd_sc_hd__clkbuf_1 abstract view
.subckt sky130_fd_sc_hd__clkbuf_1 A VGND VNB VPB VPWR X
.ends

* Black-box entry subcircuit for sky130_fd_sc_hd__fill_2 abstract view
.subckt sky130_fd_sc_hd__fill_2 VGND VNB VPB VPWR
.ends

* Black-box entry subcircuit for sky130_fd_sc_hd__xnor2_1 abstract view
.subckt sky130_fd_sc_hd__xnor2_1 A B VGND VNB VPB VPWR Y
.ends

* Black-box entry subcircuit for sky130_fd_sc_hd__buf_1 abstract view
.subckt sky130_fd_sc_hd__buf_1 A VGND VNB VPB VPWR X
.ends

* Black-box entry subcircuit for sky130_fd_sc_hd__or2_1 abstract view
.subckt sky130_fd_sc_hd__or2_1 A B VGND VNB VPB VPWR X
.ends

* Black-box entry subcircuit for sky130_fd_sc_hd__or4bb_1 abstract view
.subckt sky130_fd_sc_hd__or4bb_1 A B C_N D_N VGND VNB VPB VPWR X
.ends

* Black-box entry subcircuit for sky130_fd_sc_hd__decap_4 abstract view
.subckt sky130_fd_sc_hd__decap_4 VGND VNB VPB VPWR
.ends

* Black-box entry subcircuit for sky130_fd_sc_hd__nand2b_1 abstract view
.subckt sky130_fd_sc_hd__nand2b_1 A_N B VGND VNB VPB VPWR Y
.ends

* Black-box entry subcircuit for sky130_fd_sc_hd__nand2_1 abstract view
.subckt sky130_fd_sc_hd__nand2_1 A B VGND VNB VPB VPWR Y
.ends

* Black-box entry subcircuit for sky130_fd_sc_hd__o21ai_1 abstract view
.subckt sky130_fd_sc_hd__o21ai_1 A1 A2 B1 VGND VNB VPB VPWR Y
.ends

* Black-box entry subcircuit for sky130_fd_sc_hd__o22ai_1 abstract view
.subckt sky130_fd_sc_hd__o22ai_1 A1 A2 B1 B2 VGND VNB VPB VPWR Y
.ends

* Black-box entry subcircuit for sky130_fd_sc_hd__and2b_1 abstract view
.subckt sky130_fd_sc_hd__and2b_1 A_N B VGND VNB VPB VPWR X
.ends

* Black-box entry subcircuit for sky130_fd_sc_hd__and4bb_1 abstract view
.subckt sky130_fd_sc_hd__and4bb_1 A_N B_N C D VGND VNB VPB VPWR X
.ends

* Black-box entry subcircuit for sky130_fd_sc_hd__nor2_1 abstract view
.subckt sky130_fd_sc_hd__nor2_1 A B VGND VNB VPB VPWR Y
.ends

* Black-box entry subcircuit for sky130_fd_sc_hd__nand4_2 abstract view
.subckt sky130_fd_sc_hd__nand4_2 A B C D VGND VNB VPB VPWR Y
.ends

* Black-box entry subcircuit for sky130_fd_sc_hd__dlygate4sd3_1 abstract view
.subckt sky130_fd_sc_hd__dlygate4sd3_1 A VGND VNB VPB VPWR X
.ends

* Black-box entry subcircuit for sky130_fd_sc_hd__o211a_1 abstract view
.subckt sky130_fd_sc_hd__o211a_1 A1 A2 B1 C1 VGND VNB VPB VPWR X
.ends

* Black-box entry subcircuit for sky130_fd_sc_hd__o221a_1 abstract view
.subckt sky130_fd_sc_hd__o221a_1 A1 A2 B1 B2 C1 VGND VNB VPB VPWR X
.ends

* Black-box entry subcircuit for sky130_fd_sc_hd__a22o_1 abstract view
.subckt sky130_fd_sc_hd__a22o_1 A1 A2 B1 B2 VGND VNB VPB VPWR X
.ends

* Black-box entry subcircuit for sky130_fd_sc_hd__buf_2 abstract view
.subckt sky130_fd_sc_hd__buf_2 A VGND VNB VPB VPWR X
.ends

* Black-box entry subcircuit for sky130_fd_sc_hd__and3_1 abstract view
.subckt sky130_fd_sc_hd__and3_1 A B C VGND VNB VPB VPWR X
.ends

* Black-box entry subcircuit for sky130_fd_sc_hd__o21a_1 abstract view
.subckt sky130_fd_sc_hd__o21a_1 A1 A2 B1 VGND VNB VPB VPWR X
.ends

* Black-box entry subcircuit for sky130_fd_sc_hd__a21o_1 abstract view
.subckt sky130_fd_sc_hd__a21o_1 A1 A2 B1 VGND VNB VPB VPWR X
.ends

* Black-box entry subcircuit for sky130_fd_sc_hd__dlymetal6s2s_1 abstract view
.subckt sky130_fd_sc_hd__dlymetal6s2s_1 A VGND VNB VPB VPWR X
.ends

* Black-box entry subcircuit for sky130_fd_sc_hd__inv_2 abstract view
.subckt sky130_fd_sc_hd__inv_2 A VGND VNB VPB VPWR Y
.ends

* Black-box entry subcircuit for sky130_fd_sc_hd__clkbuf_8 abstract view
.subckt sky130_fd_sc_hd__clkbuf_8 A VGND VNB VPB VPWR X
.ends

* Black-box entry subcircuit for sky130_fd_sc_hd__a31o_1 abstract view
.subckt sky130_fd_sc_hd__a31o_1 A1 A2 A3 B1 VGND VNB VPB VPWR X
.ends

* Black-box entry subcircuit for sky130_fd_sc_hd__a21bo_1 abstract view
.subckt sky130_fd_sc_hd__a21bo_1 A1 A2 B1_N VGND VNB VPB VPWR X
.ends

* Black-box entry subcircuit for sky130_fd_sc_hd__xnor2_4 abstract view
.subckt sky130_fd_sc_hd__xnor2_4 A B VGND VNB VPB VPWR Y
.ends

* Black-box entry subcircuit for sky130_fd_sc_hd__a31oi_1 abstract view
.subckt sky130_fd_sc_hd__a31oi_1 A1 A2 A3 B1 VGND VNB VPB VPWR Y
.ends

* Black-box entry subcircuit for sky130_fd_sc_hd__a21oi_1 abstract view
.subckt sky130_fd_sc_hd__a21oi_1 A1 A2 B1 VGND VNB VPB VPWR Y
.ends

* Black-box entry subcircuit for sky130_fd_sc_hd__o22ai_2 abstract view
.subckt sky130_fd_sc_hd__o22ai_2 A1 A2 B1 B2 VGND VNB VPB VPWR Y
.ends

* Black-box entry subcircuit for sky130_fd_sc_hd__and4_1 abstract view
.subckt sky130_fd_sc_hd__and4_1 A B C D VGND VNB VPB VPWR X
.ends

* Black-box entry subcircuit for sky130_fd_sc_hd__a41o_1 abstract view
.subckt sky130_fd_sc_hd__a41o_1 A1 A2 A3 A4 B1 VGND VNB VPB VPWR X
.ends

* Black-box entry subcircuit for sky130_fd_sc_hd__and3b_1 abstract view
.subckt sky130_fd_sc_hd__and3b_1 A_N B C VGND VNB VPB VPWR X
.ends

* Black-box entry subcircuit for sky130_fd_sc_hd__nor3b_1 abstract view
.subckt sky130_fd_sc_hd__nor3b_1 A B C_N VGND VNB VPB VPWR Y
.ends

* Black-box entry subcircuit for sky130_fd_sc_hd__o211a_4 abstract view
.subckt sky130_fd_sc_hd__o211a_4 A1 A2 B1 C1 VGND VNB VPB VPWR X
.ends

* Black-box entry subcircuit for sky130_fd_sc_hd__o21ba_1 abstract view
.subckt sky130_fd_sc_hd__o21ba_1 A1 A2 B1_N VGND VNB VPB VPWR X
.ends

* Black-box entry subcircuit for sky130_fd_sc_hd__a211o_1 abstract view
.subckt sky130_fd_sc_hd__a211o_1 A1 A2 B1 C1 VGND VNB VPB VPWR X
.ends

* Black-box entry subcircuit for sky130_fd_sc_hd__o31ai_1 abstract view
.subckt sky130_fd_sc_hd__o31ai_1 A1 A2 A3 B1 VGND VNB VPB VPWR Y
.ends

* Black-box entry subcircuit for sky130_fd_sc_hd__nand4_1 abstract view
.subckt sky130_fd_sc_hd__nand4_1 A B C D VGND VNB VPB VPWR Y
.ends

* Black-box entry subcircuit for sky130_fd_sc_hd__xnor2_2 abstract view
.subckt sky130_fd_sc_hd__xnor2_2 A B VGND VNB VPB VPWR Y
.ends

* Black-box entry subcircuit for sky130_fd_sc_hd__o31a_1 abstract view
.subckt sky130_fd_sc_hd__o31a_1 A1 A2 A3 B1 VGND VNB VPB VPWR X
.ends

* Black-box entry subcircuit for sky130_fd_sc_hd__and4b_1 abstract view
.subckt sky130_fd_sc_hd__and4b_1 A_N B C D VGND VNB VPB VPWR X
.ends

* Black-box entry subcircuit for sky130_fd_sc_hd__xor2_1 abstract view
.subckt sky130_fd_sc_hd__xor2_1 A B VGND VNB VPB VPWR X
.ends

* Black-box entry subcircuit for sky130_fd_sc_hd__o211ai_1 abstract view
.subckt sky130_fd_sc_hd__o211ai_1 A1 A2 B1 C1 VGND VNB VPB VPWR Y
.ends

* Black-box entry subcircuit for sky130_fd_sc_hd__or4_2 abstract view
.subckt sky130_fd_sc_hd__or4_2 A B C D VGND VNB VPB VPWR X
.ends

* Black-box entry subcircuit for sky130_fd_sc_hd__clkinv_2 abstract view
.subckt sky130_fd_sc_hd__clkinv_2 A VGND VNB VPB VPWR Y
.ends

* Black-box entry subcircuit for sky130_fd_sc_hd__a31o_4 abstract view
.subckt sky130_fd_sc_hd__a31o_4 A1 A2 A3 B1 VGND VNB VPB VPWR X
.ends

* Black-box entry subcircuit for sky130_fd_sc_hd__nor3_1 abstract view
.subckt sky130_fd_sc_hd__nor3_1 A B C VGND VNB VPB VPWR Y
.ends

* Black-box entry subcircuit for sky130_fd_sc_hd__xor2_2 abstract view
.subckt sky130_fd_sc_hd__xor2_2 A B VGND VNB VPB VPWR X
.ends

* Black-box entry subcircuit for sky130_fd_sc_hd__nand3_1 abstract view
.subckt sky130_fd_sc_hd__nand3_1 A B C VGND VNB VPB VPWR Y
.ends

* Black-box entry subcircuit for sky130_fd_sc_hd__a21boi_4 abstract view
.subckt sky130_fd_sc_hd__a21boi_4 A1 A2 B1_N VGND VNB VPB VPWR Y
.ends

* Black-box entry subcircuit for sky130_fd_sc_hd__a2111o_1 abstract view
.subckt sky130_fd_sc_hd__a2111o_1 A1 A2 B1 C1 D1 VGND VNB VPB VPWR X
.ends

* Black-box entry subcircuit for sky130_fd_sc_hd__a211oi_1 abstract view
.subckt sky130_fd_sc_hd__a211oi_1 A1 A2 B1 C1 VGND VNB VPB VPWR Y
.ends

* Black-box entry subcircuit for sky130_fd_sc_hd__nand4b_1 abstract view
.subckt sky130_fd_sc_hd__nand4b_1 A_N B C D VGND VNB VPB VPWR Y
.ends

* Black-box entry subcircuit for sky130_fd_sc_hd__clkbuf_2 abstract view
.subckt sky130_fd_sc_hd__clkbuf_2 A VGND VNB VPB VPWR X
.ends

* Black-box entry subcircuit for sky130_fd_sc_hd__or4_4 abstract view
.subckt sky130_fd_sc_hd__or4_4 A B C D VGND VNB VPB VPWR X
.ends

* Black-box entry subcircuit for sky130_fd_sc_hd__or4_1 abstract view
.subckt sky130_fd_sc_hd__or4_1 A B C D VGND VNB VPB VPWR X
.ends

* Black-box entry subcircuit for sky130_fd_sc_hd__o2111a_1 abstract view
.subckt sky130_fd_sc_hd__o2111a_1 A1 A2 B1 C1 D1 VGND VNB VPB VPWR X
.ends

* Black-box entry subcircuit for sky130_fd_sc_hd__or3b_1 abstract view
.subckt sky130_fd_sc_hd__or3b_1 A B C_N VGND VNB VPB VPWR X
.ends

* Black-box entry subcircuit for sky130_fd_sc_hd__bufinv_16 abstract view
.subckt sky130_fd_sc_hd__bufinv_16 A VGND VNB VPB VPWR Y
.ends

* Black-box entry subcircuit for sky130_fd_sc_hd__or4b_1 abstract view
.subckt sky130_fd_sc_hd__or4b_1 A B C D_N VGND VNB VPB VPWR X
.ends

* Black-box entry subcircuit for sky130_fd_sc_hd__a21boi_1 abstract view
.subckt sky130_fd_sc_hd__a21boi_1 A1 A2 B1_N VGND VNB VPB VPWR Y
.ends

* Black-box entry subcircuit for sky130_fd_sc_hd__nand3_2 abstract view
.subckt sky130_fd_sc_hd__nand3_2 A B C VGND VNB VPB VPWR Y
.ends

* Black-box entry subcircuit for sky130_fd_sc_hd__clkinvlp_4 abstract view
.subckt sky130_fd_sc_hd__clkinvlp_4 A VGND VNB VPB VPWR Y
.ends

* Black-box entry subcircuit for sky130_fd_sc_hd__or3_4 abstract view
.subckt sky130_fd_sc_hd__or3_4 A B C VGND VNB VPB VPWR X
.ends

* Black-box entry subcircuit for sky130_fd_sc_hd__o22a_1 abstract view
.subckt sky130_fd_sc_hd__o22a_1 A1 A2 B1 B2 VGND VNB VPB VPWR X
.ends

* Black-box entry subcircuit for sky130_fd_sc_hd__nand2_2 abstract view
.subckt sky130_fd_sc_hd__nand2_2 A B VGND VNB VPB VPWR Y
.ends

* Black-box entry subcircuit for sky130_fd_sc_hd__clkinv_4 abstract view
.subckt sky130_fd_sc_hd__clkinv_4 A VGND VNB VPB VPWR Y
.ends

* Black-box entry subcircuit for sky130_fd_sc_hd__or2_2 abstract view
.subckt sky130_fd_sc_hd__or2_2 A B VGND VNB VPB VPWR X
.ends

* Black-box entry subcircuit for sky130_fd_sc_hd__a311o_1 abstract view
.subckt sky130_fd_sc_hd__a311o_1 A1 A2 A3 B1 C1 VGND VNB VPB VPWR X
.ends

* Black-box entry subcircuit for sky130_fd_sc_hd__buf_6 abstract view
.subckt sky130_fd_sc_hd__buf_6 A VGND VNB VPB VPWR X
.ends

* Black-box entry subcircuit for sky130_fd_sc_hd__or3_1 abstract view
.subckt sky130_fd_sc_hd__or3_1 A B C VGND VNB VPB VPWR X
.ends

* Black-box entry subcircuit for sky130_fd_sc_hd__o2bb2a_1 abstract view
.subckt sky130_fd_sc_hd__o2bb2a_1 A1_N A2_N B1 B2 VGND VNB VPB VPWR X
.ends

* Black-box entry subcircuit for sky130_fd_sc_hd__o41a_1 abstract view
.subckt sky130_fd_sc_hd__o41a_1 A1 A2 A3 A4 B1 VGND VNB VPB VPWR X
.ends

* Black-box entry subcircuit for sky130_fd_sc_hd__o32a_1 abstract view
.subckt sky130_fd_sc_hd__o32a_1 A1 A2 A3 B1 B2 VGND VNB VPB VPWR X
.ends

* Black-box entry subcircuit for sky130_fd_sc_hd__a2111oi_1 abstract view
.subckt sky130_fd_sc_hd__a2111oi_1 A1 A2 B1 C1 D1 VGND VNB VPB VPWR Y
.ends

* Black-box entry subcircuit for sky130_fd_sc_hd__o211ai_4 abstract view
.subckt sky130_fd_sc_hd__o211ai_4 A1 A2 B1 C1 VGND VNB VPB VPWR Y
.ends

* Black-box entry subcircuit for sky130_fd_sc_hd__o311a_1 abstract view
.subckt sky130_fd_sc_hd__o311a_1 A1 A2 A3 B1 C1 VGND VNB VPB VPWR X
.ends

* Black-box entry subcircuit for sky130_fd_sc_hd__a22oi_1 abstract view
.subckt sky130_fd_sc_hd__a22oi_1 A1 A2 B1 B2 VGND VNB VPB VPWR Y
.ends

* Black-box entry subcircuit for sky130_fd_sc_hd__o21bai_1 abstract view
.subckt sky130_fd_sc_hd__o21bai_1 A1 A2 B1_N VGND VNB VPB VPWR Y
.ends

* Black-box entry subcircuit for sky130_fd_sc_hd__or2_4 abstract view
.subckt sky130_fd_sc_hd__or2_4 A B VGND VNB VPB VPWR X
.ends

* Black-box entry subcircuit for sky130_fd_sc_hd__a21boi_2 abstract view
.subckt sky130_fd_sc_hd__a21boi_2 A1 A2 B1_N VGND VNB VPB VPWR Y
.ends

* Black-box entry subcircuit for sky130_fd_sc_hd__a2111oi_2 abstract view
.subckt sky130_fd_sc_hd__a2111oi_2 A1 A2 B1 C1 D1 VGND VNB VPB VPWR Y
.ends

* Black-box entry subcircuit for sky130_fd_sc_hd__a22oi_2 abstract view
.subckt sky130_fd_sc_hd__a22oi_2 A1 A2 B1 B2 VGND VNB VPB VPWR Y
.ends

* Black-box entry subcircuit for sky130_fd_sc_hd__dfxtp_2 abstract view
.subckt sky130_fd_sc_hd__dfxtp_2 CLK D VGND VNB VPB VPWR Q
.ends

* Black-box entry subcircuit for sky130_fd_sc_hd__mux2_4 abstract view
.subckt sky130_fd_sc_hd__mux2_4 A0 A1 S VGND VNB VPB VPWR X
.ends

* Black-box entry subcircuit for sky130_fd_sc_hd__o221a_4 abstract view
.subckt sky130_fd_sc_hd__o221a_4 A1 A2 B1 B2 C1 VGND VNB VPB VPWR X
.ends

* Black-box entry subcircuit for sky130_fd_sc_hd__nor2_2 abstract view
.subckt sky130_fd_sc_hd__nor2_2 A B VGND VNB VPB VPWR Y
.ends

* Black-box entry subcircuit for sky130_fd_sc_hd__a32o_1 abstract view
.subckt sky130_fd_sc_hd__a32o_1 A1 A2 A3 B1 B2 VGND VNB VPB VPWR X
.ends

* Black-box entry subcircuit for sky130_fd_sc_hd__nand3b_1 abstract view
.subckt sky130_fd_sc_hd__nand3b_1 A_N B C VGND VNB VPB VPWR Y
.ends

* Black-box entry subcircuit for sky130_fd_sc_hd__dlygate4sd1_1 abstract view
.subckt sky130_fd_sc_hd__dlygate4sd1_1 A VGND VNB VPB VPWR X
.ends

* Black-box entry subcircuit for sky130_fd_sc_hd__o31ai_4 abstract view
.subckt sky130_fd_sc_hd__o31ai_4 A1 A2 A3 B1 VGND VNB VPB VPWR Y
.ends

* Black-box entry subcircuit for sky130_fd_sc_hd__clkbuf_16 abstract view
.subckt sky130_fd_sc_hd__clkbuf_16 A VGND VNB VPB VPWR X
.ends

* Black-box entry subcircuit for sky130_fd_sc_hd__a31oi_4 abstract view
.subckt sky130_fd_sc_hd__a31oi_4 A1 A2 A3 B1 VGND VNB VPB VPWR Y
.ends

* Black-box entry subcircuit for sky130_fd_sc_hd__a211oi_2 abstract view
.subckt sky130_fd_sc_hd__a211oi_2 A1 A2 B1 C1 VGND VNB VPB VPWR Y
.ends

* Black-box entry subcircuit for sky130_fd_sc_hd__a2bb2o_1 abstract view
.subckt sky130_fd_sc_hd__a2bb2o_1 A1_N A2_N B1 B2 VGND VNB VPB VPWR X
.ends

* Black-box entry subcircuit for sky130_fd_sc_hd__diode_2 abstract view
.subckt sky130_fd_sc_hd__diode_2 DIODE VGND VNB VPB VPWR
.ends

* Black-box entry subcircuit for sky130_fd_sc_hd__or3b_2 abstract view
.subckt sky130_fd_sc_hd__or3b_2 A B C_N VGND VNB VPB VPWR X
.ends

* Black-box entry subcircuit for sky130_fd_sc_hd__a211o_4 abstract view
.subckt sky130_fd_sc_hd__a211o_4 A1 A2 B1 C1 VGND VNB VPB VPWR X
.ends

* Black-box entry subcircuit for sky130_fd_sc_hd__nor4_1 abstract view
.subckt sky130_fd_sc_hd__nor4_1 A B C D VGND VNB VPB VPWR Y
.ends

* Black-box entry subcircuit for sky130_fd_sc_hd__and2_4 abstract view
.subckt sky130_fd_sc_hd__and2_4 A B VGND VNB VPB VPWR X
.ends

.subckt pll_top VGND VPWR debug_dco_word[0] debug_dco_word[10] debug_dco_word[11]
+ debug_dco_word[12] debug_dco_word[13] debug_dco_word[14] debug_dco_word[15] debug_dco_word[16]
+ debug_dco_word[17] debug_dco_word[18] debug_dco_word[19] debug_dco_word[1] debug_dco_word[20]
+ debug_dco_word[21] debug_dco_word[22] debug_dco_word[23] debug_dco_word[24] debug_dco_word[25]
+ debug_dco_word[26] debug_dco_word[27] debug_dco_word[28] debug_dco_word[29] debug_dco_word[2]
+ debug_dco_word[30] debug_dco_word[31] debug_dco_word[3] debug_dco_word[4] debug_dco_word[5]
+ debug_dco_word[6] debug_dco_word[7] debug_dco_word[8] debug_dco_word[9] div_val[0]
+ div_val[10] div_val[11] div_val[12] div_val[13] div_val[14] div_val[15] div_val[16]
+ div_val[17] div_val[18] div_val[19] div_val[1] div_val[20] div_val[21] div_val[22]
+ div_val[23] div_val[24] div_val[25] div_val[26] div_val[27] div_val[28] div_val[29]
+ div_val[2] div_val[30] div_val[31] div_val[3] div_val[4] div_val[5] div_val[6] div_val[7]
+ div_val[8] div_val[9] initial_freq[0] initial_freq[10] initial_freq[11] initial_freq[12]
+ initial_freq[13] initial_freq[14] initial_freq[15] initial_freq[16] initial_freq[17]
+ initial_freq[18] initial_freq[19] initial_freq[1] initial_freq[20] initial_freq[21]
+ initial_freq[22] initial_freq[23] initial_freq[24] initial_freq[25] initial_freq[26]
+ initial_freq[27] initial_freq[28] initial_freq[29] initial_freq[2] initial_freq[30]
+ initial_freq[31] initial_freq[3] initial_freq[4] initial_freq[5] initial_freq[6]
+ initial_freq[7] initial_freq[8] initial_freq[9] lock_detect pll_out ref_clk rst_n
+ sys_clk
XFILLER_54_203 VGND VGND VPWR VPWR sky130_fd_sc_hd__fill_1
X_2037_ net371 net187 _0461_ _0462_ _0255_ VGND VGND VPWR VPWR _0115_ sky130_fd_sc_hd__a221o_1
X_2106_ clknet_4_1_0_sys_clk _0009_ VGND VGND VPWR VPWR dco_inst.accumulator\[5\]
+ sky130_fd_sc_hd__dfxtp_1
XTAP_TAPCELL_ROW_60_492 VGND VPWR sky130_fd_sc_hd__tapvpwrvgnd_1
XFILLER_52_29 VPWR VGND VPWR VGND sky130_ef_sc_hd__decap_12
XFILLER_10_317 VGND VGND VPWR VPWR sky130_fd_sc_hd__fill_1
XFILLER_10_328 VGND VGND VPWR VPWR sky130_fd_sc_hd__decap_8
XFILLER_45_214 VGND VGND VPWR VPWR sky130_fd_sc_hd__decap_8
XFILLER_26_63 VGND VGND VPWR VPWR sky130_fd_sc_hd__decap_8
XFILLER_13_122 VGND VGND VPWR VPWR sky130_fd_sc_hd__decap_6
XFILLER_42_51 VGND VGND VPWR VPWR sky130_fd_sc_hd__decap_3
XFILLER_9_104 VGND VGND VPWR VPWR sky130_fd_sc_hd__decap_8
XTAP_TAPCELL_ROW_8_181 VGND VPWR sky130_fd_sc_hd__tapvpwrvgnd_1
X_1270_ _0662_ _0674_ VGND VGND VPWR VPWR _0675_ sky130_fd_sc_hd__and2_1
XFILLER_3_89 VPWR VGND VPWR VGND sky130_ef_sc_hd__decap_12
X_1606_ net63 net323 net286 VGND VGND VPWR VPWR _0044_ sky130_fd_sc_hd__mux2_1
XFILLER_59_317 VPWR VGND VPWR VGND sky130_ef_sc_hd__decap_12
Xfanout149 div_inst.counter\[1\] VGND VGND VPWR VPWR net149 sky130_fd_sc_hd__clkbuf_1
XFILLER_47_18 VGND VGND VPWR VPWR sky130_fd_sc_hd__fill_2
X_1537_ div_inst.counter\[9\] _0851_ VGND VGND VPWR VPWR _0938_ sky130_fd_sc_hd__xnor2_1
Xfanout105 net106 VGND VGND VPWR VPWR net105 sky130_fd_sc_hd__buf_1
Xfanout116 net117 VGND VGND VPWR VPWR net116 sky130_fd_sc_hd__clkbuf_1
Xfanout138 _0859_ VGND VGND VPWR VPWR net138 sky130_fd_sc_hd__buf_1
X_1468_ div_inst.counter\[30\] _0868_ VGND VGND VPWR VPWR _0869_ sky130_fd_sc_hd__or2_1
X_1399_ _0788_ _0790_ _0791_ _0795_ VGND VGND VPWR VPWR _0800_ sky130_fd_sc_hd__or4bb_1
XFILLER_35_291 VGND VGND VPWR VPWR sky130_fd_sc_hd__fill_1
XFILLER_27_203 VGND VGND VPWR VPWR sky130_fd_sc_hd__decap_8
XFILLER_50_250 VGND VGND VPWR VPWR sky130_fd_sc_hd__fill_2
XFILLER_12_54 VGND VGND VPWR VPWR sky130_fd_sc_hd__decap_8
XFILLER_2_357 VGND VGND VPWR VPWR sky130_fd_sc_hd__decap_4
XFILLER_58_361 VGND VGND VPWR VPWR sky130_fd_sc_hd__fill_1
XFILLER_37_40 VPWR VGND VPWR VGND sky130_ef_sc_hd__decap_12
XTAP_TAPCELL_ROW_5_162 VGND VPWR sky130_fd_sc_hd__tapvpwrvgnd_1
XFILLER_18_258 VPWR VGND VPWR VGND sky130_ef_sc_hd__decap_12
XTAP_TAPCELL_ROW_28_297 VGND VPWR sky130_fd_sc_hd__tapvpwrvgnd_1
XTAP_TAPCELL_ROW_11_197 VGND VPWR sky130_fd_sc_hd__tapvpwrvgnd_1
X_1253_ _0658_ _0659_ VGND VGND VPWR VPWR _0660_ sky130_fd_sc_hd__nand2b_1
XFILLER_56_309 VPWR VGND VPWR VGND sky130_ef_sc_hd__decap_12
X_1322_ net30 _0696_ VGND VGND VPWR VPWR _0723_ sky130_fd_sc_hd__and2_1
X_1184_ dco_inst.accumulator\[17\] net75 VGND VGND VPWR VPWR _0600_ sky130_fd_sc_hd__nand2_1
XTAP_TAPCELL_ROW_19_242 VGND VPWR sky130_fd_sc_hd__tapvpwrvgnd_1
XFILLER_59_169 VGND VGND VPWR VPWR sky130_fd_sc_hd__decap_8
XFILLER_47_309 VPWR VGND VPWR VGND sky130_ef_sc_hd__decap_12
XTAP_TAPCELL_ROW_2_143 VGND VPWR sky130_fd_sc_hd__tapvpwrvgnd_1
XTAP_TAPCELL_ROW_25_278 VGND VPWR sky130_fd_sc_hd__tapvpwrvgnd_1
XFILLER_15_217 VGND VGND VPWR VPWR sky130_fd_sc_hd__decap_6
XFILLER_23_31 VGND VGND VPWR VPWR sky130_fd_sc_hd__fill_1
XFILLER_38_309 VGND VGND VPWR VPWR sky130_fd_sc_hd__decap_8
XFILLER_58_191 VGND VGND VPWR VPWR sky130_fd_sc_hd__decap_4
XFILLER_0_57 VGND VGND VPWR VPWR sky130_fd_sc_hd__decap_8
X_1871_ _0313_ _0319_ _0318_ VGND VGND VPWR VPWR _0320_ sky130_fd_sc_hd__o21ai_1
X_1940_ _0375_ _0377_ VGND VGND VPWR VPWR _0379_ sky130_fd_sc_hd__xnor2_1
X_1236_ dco_inst.accumulator\[24\] net83 VGND VGND VPWR VPWR _0645_ sky130_fd_sc_hd__nand2_1
XFILLER_56_139 VGND VGND VPWR VPWR sky130_fd_sc_hd__fill_1
X_1305_ div_inst.counter\[15\] _0704_ _0705_ div_inst.counter\[14\] VGND VGND VPWR
+ VPWR _0706_ sky130_fd_sc_hd__o22ai_1
X_1098_ dco_inst.accumulator\[5\] net94 VGND VGND VPWR VPWR _0526_ sky130_fd_sc_hd__nand2_1
XFILLER_12_209 VGND VGND VPWR VPWR sky130_fd_sc_hd__decap_6
X_1167_ _0585_ _0584_ VGND VGND VPWR VPWR _0018_ sky130_fd_sc_hd__and2b_1
XFILLER_60_29 VPWR VGND VPWR VGND sky130_ef_sc_hd__decap_12
XPHY_EDGE_ROW_8_Left_69 VGND VGND VPWR VPWR sky130_fd_sc_hd__decap_3
XFILLER_18_97 VGND VGND VPWR VPWR sky130_fd_sc_hd__fill_2
XFILLER_34_74 VGND VGND VPWR VPWR sky130_fd_sc_hd__fill_1
XFILLER_34_41 VGND VGND VPWR VPWR sky130_fd_sc_hd__decap_8
XFILLER_7_279 VGND VGND VPWR VPWR sky130_fd_sc_hd__fill_1
X_2070_ net275 _0951_ net109 net121 VGND VGND VPWR VPWR _0124_ sky130_fd_sc_hd__and4bb_1
XFILLER_38_139 VGND VGND VPWR VPWR sky130_fd_sc_hd__fill_1
XFILLER_34_323 VPWR VGND VPWR VGND sky130_ef_sc_hd__decap_12
X_1785_ net198 _0249_ VGND VGND VPWR VPWR _0250_ sky130_fd_sc_hd__nor2_1
XTAP_TAPCELL_ROW_44_395 VGND VPWR sky130_fd_sc_hd__tapvpwrvgnd_1
X_1854_ lf_inst.integrator\[2\] net164 VGND VGND VPWR VPWR _0305_ sky130_fd_sc_hd__nand2_1
X_1923_ _0342_ _0348_ _0353_ _0359_ VGND VGND VPWR VPWR _0364_ sky130_fd_sc_hd__nand4_2
X_1219_ dco_inst.accumulator\[22\] net81 VGND VGND VPWR VPWR _0630_ sky130_fd_sc_hd__or2_1
XFILLER_25_301 VGND VGND VPWR VPWR sky130_fd_sc_hd__fill_1
X_2199_ clknet_4_4_0_sys_clk _0098_ VGND VGND VPWR VPWR net68 sky130_fd_sc_hd__dfxtp_1
XFILLER_52_186 VGND VGND VPWR VPWR sky130_fd_sc_hd__decap_3
XTAP_TAPCELL_ROW_35_340 VGND VPWR sky130_fd_sc_hd__tapvpwrvgnd_1
Xhold30 net84 VGND VGND VPWR VPWR net340 sky130_fd_sc_hd__dlygate4sd3_1
Xhold41 net81 VGND VGND VPWR VPWR net351 sky130_fd_sc_hd__dlygate4sd3_1
Xhold52 net88 VGND VGND VPWR VPWR net362 sky130_fd_sc_hd__dlygate4sd3_1
Xhold63 lf_inst.integrator\[21\] VGND VGND VPWR VPWR net373 sky130_fd_sc_hd__dlygate4sd3_1
XTAP_TAPCELL_ROW_58_476 VGND VPWR sky130_fd_sc_hd__tapvpwrvgnd_1
XFILLER_43_153 VGND VGND VPWR VPWR sky130_fd_sc_hd__fill_1
XFILLER_16_323 VGND VGND VPWR VPWR sky130_fd_sc_hd__decap_6
XTAP_TAPCELL_ROW_41_376 VGND VPWR sky130_fd_sc_hd__tapvpwrvgnd_1
XFILLER_31_337 VPWR VGND VPWR VGND sky130_ef_sc_hd__decap_12
X_1570_ net151 net311 _0967_ _0970_ VGND VGND VPWR VPWR _0971_ sky130_fd_sc_hd__o211a_1
XFILLER_3_293 VPWR VGND VPWR VGND sky130_ef_sc_hd__decap_12
X_2053_ net362 net186 _0475_ _0476_ _0272_ VGND VGND VPWR VPWR _0117_ sky130_fd_sc_hd__a221o_1
X_2122_ clknet_4_10_0_sys_clk _0025_ VGND VGND VPWR VPWR dco_inst.accumulator\[21\]
+ sky130_fd_sc_hd__dfxtp_1
XFILLER_19_161 VGND VGND VPWR VPWR sky130_fd_sc_hd__decap_6
XFILLER_34_197 VPWR VGND VPWR VGND sky130_ef_sc_hd__decap_12
XTAP_TAPCELL_ROW_32_321 VGND VPWR sky130_fd_sc_hd__tapvpwrvgnd_1
X_1768_ net297 net49 _1018_ net357 _0234_ VGND VGND VPWR VPWR _0074_ sky130_fd_sc_hd__o221a_1
X_1837_ lf_inst.zero_error_count\[1\] _0289_ net133 _0292_ VGND VGND VPWR VPWR _0293_
+ sky130_fd_sc_hd__a22o_1
X_1906_ _0345_ _0348_ VGND VGND VPWR VPWR _0350_ sky130_fd_sc_hd__xnor2_1
XFILLER_57_234 VPWR VGND VPWR VGND sky130_ef_sc_hd__decap_12
XFILLER_57_201 VGND VGND VPWR VPWR sky130_fd_sc_hd__fill_1
X_1699_ net178 _0173_ VGND VGND VPWR VPWR _0174_ sky130_fd_sc_hd__or2_1
XFILLER_57_278 VGND VGND VPWR VPWR sky130_fd_sc_hd__fill_2
XFILLER_25_175 VGND VGND VPWR VPWR sky130_fd_sc_hd__fill_1
XFILLER_13_337 VPWR VGND VPWR VGND sky130_ef_sc_hd__decap_12
Xoutput75 net75 VGND VGND VPWR VPWR debug_dco_word[17] sky130_fd_sc_hd__buf_2
Xoutput86 net86 VGND VGND VPWR VPWR debug_dco_word[27] sky130_fd_sc_hd__buf_2
XFILLER_56_83 VGND VGND VPWR VPWR sky130_fd_sc_hd__fill_1
XFILLER_56_50 VPWR VGND VPWR VGND sky130_ef_sc_hd__decap_12
Xoutput97 net97 VGND VGND VPWR VPWR debug_dco_word[8] sky130_fd_sc_hd__buf_2
XFILLER_16_153 VGND VGND VPWR VPWR sky130_fd_sc_hd__decap_4
XFILLER_16_186 VGND VGND VPWR VPWR sky130_fd_sc_hd__decap_8
XFILLER_16_197 VPWR VGND VPWR VGND sky130_ef_sc_hd__decap_12
X_1622_ net209 _1005_ _1006_ VGND VGND VPWR VPWR _0053_ sky130_fd_sc_hd__and3_1
X_1553_ _0849_ _0953_ VGND VGND VPWR VPWR _0954_ sky130_fd_sc_hd__or2_1
XFILLER_39_223 VGND VGND VPWR VPWR sky130_fd_sc_hd__fill_1
X_1484_ div_inst.counter\[24\] _0864_ VGND VGND VPWR VPWR _0885_ sky130_fd_sc_hd__xnor2_1
Xfanout309 net18 VGND VGND VPWR VPWR net309 sky130_fd_sc_hd__buf_1
X_2036_ _0458_ _0460_ net204 VGND VGND VPWR VPWR _0462_ sky130_fd_sc_hd__o21a_1
XFILLER_39_278 VGND VGND VPWR VPWR sky130_fd_sc_hd__fill_2
XFILLER_39_267 VGND VGND VPWR VPWR sky130_fd_sc_hd__decap_6
X_2105_ clknet_4_1_0_sys_clk _0008_ VGND VGND VPWR VPWR dco_inst.accumulator\[4\]
+ sky130_fd_sc_hd__dfxtp_1
XTAP_TAPCELL_ROW_60_493 VGND VPWR sky130_fd_sc_hd__tapvpwrvgnd_1
XFILLER_10_307 VGND VGND VPWR VPWR sky130_fd_sc_hd__fill_1
XFILLER_22_156 VGND VGND VPWR VPWR sky130_fd_sc_hd__decap_3
XPHY_EDGE_ROW_37_Left_98 VGND VGND VPWR VPWR sky130_fd_sc_hd__decap_3
XFILLER_13_156 VGND VGND VPWR VPWR sky130_fd_sc_hd__fill_1
XPHY_EDGE_ROW_39_Left_100 VGND VGND VPWR VPWR sky130_fd_sc_hd__decap_3
XFILLER_47_9 VGND VGND VPWR VPWR sky130_fd_sc_hd__fill_1
XFILLER_3_57 VGND VGND VPWR VPWR sky130_fd_sc_hd__decap_8
X_1536_ _0934_ _0936_ VGND VGND VPWR VPWR _0937_ sky130_fd_sc_hd__nand2_1
X_1605_ net286 net335 _0998_ VGND VGND VPWR VPWR _0043_ sky130_fd_sc_hd__a21o_1
XFILLER_59_329 VGND VGND VPWR VPWR sky130_fd_sc_hd__decap_6
Xfanout106 net112 VGND VGND VPWR VPWR net106 sky130_fd_sc_hd__buf_1
Xfanout117 net118 VGND VGND VPWR VPWR net117 sky130_fd_sc_hd__buf_1
XFILLER_27_215 VGND VGND VPWR VPWR sky130_fd_sc_hd__decap_8
Xfanout139 div_inst.counter\[21\] VGND VGND VPWR VPWR net139 sky130_fd_sc_hd__dlymetal6s2s_1
X_1398_ _0798_ VGND VGND VPWR VPWR _0799_ sky130_fd_sc_hd__inv_2
X_1467_ div_inst.counter\[29\] _0867_ VGND VGND VPWR VPWR _0868_ sky130_fd_sc_hd__and2_1
X_2019_ _0241_ net157 VGND VGND VPWR VPWR _0447_ sky130_fd_sc_hd__nor2_1
XFILLER_50_273 VGND VGND VPWR VPWR sky130_fd_sc_hd__fill_1
XFILLER_6_108 VPWR VGND VPWR VGND sky130_ef_sc_hd__decap_12
XFILLER_37_52 VGND VGND VPWR VPWR sky130_fd_sc_hd__fill_1
XTAP_TAPCELL_ROW_5_163 VGND VPWR sky130_fd_sc_hd__tapvpwrvgnd_1
XTAP_TAPCELL_ROW_28_298 VGND VPWR sky130_fd_sc_hd__tapvpwrvgnd_1
XFILLER_26_292 VGND VGND VPWR VPWR sky130_fd_sc_hd__fill_2
XFILLER_5_185 VGND VGND VPWR VPWR sky130_fd_sc_hd__fill_1
XTAP_TAPCELL_ROW_11_198 VGND VPWR sky130_fd_sc_hd__tapvpwrvgnd_1
X_1252_ dco_inst.accumulator\[26\] net85 VGND VGND VPWR VPWR _0659_ sky130_fd_sc_hd__nand2_1
X_1321_ div_inst.counter\[9\] _0720_ _0721_ div_inst.counter\[8\] VGND VGND VPWR VPWR
+ _0722_ sky130_fd_sc_hd__o22ai_1
X_1183_ dco_inst.accumulator\[17\] net75 VGND VGND VPWR VPWR _0599_ sky130_fd_sc_hd__or2_1
XTAP_TAPCELL_ROW_19_243 VGND VPWR sky130_fd_sc_hd__tapvpwrvgnd_1
Xclkbuf_4_10_0_sys_clk clknet_0_sys_clk VGND VGND VPWR VPWR clknet_4_10_0_sys_clk
+ sky130_fd_sc_hd__clkbuf_8
X_1519_ net131 _0919_ VGND VGND VPWR VPWR _0920_ sky130_fd_sc_hd__nand2b_1
XPHY_EDGE_ROW_12_Right_12 VGND VGND VPWR VPWR sky130_fd_sc_hd__decap_3
XFILLER_59_159 VGND VGND VPWR VPWR sky130_fd_sc_hd__fill_2
XTAP_TAPCELL_ROW_2_144 VGND VPWR sky130_fd_sc_hd__tapvpwrvgnd_1
XPHY_EDGE_ROW_21_Right_21 VGND VGND VPWR VPWR sky130_fd_sc_hd__decap_3
XTAP_TAPCELL_ROW_25_279 VGND VPWR sky130_fd_sc_hd__tapvpwrvgnd_1
XPHY_EDGE_ROW_30_Right_30 VGND VGND VPWR VPWR sky130_fd_sc_hd__decap_3
XFILLER_23_87 VGND VGND VPWR VPWR sky130_fd_sc_hd__fill_1
XFILLER_2_155 VGND VGND VPWR VPWR sky130_fd_sc_hd__fill_1
XTAP_TAPCELL_ROW_16_224 VGND VPWR sky130_fd_sc_hd__tapvpwrvgnd_1
X_1870_ _0496_ net136 _0306_ _0307_ _0305_ VGND VGND VPWR VPWR _0319_ sky130_fd_sc_hd__o221a_1
XFILLER_43_3 VGND VGND VPWR VPWR sky130_fd_sc_hd__fill_2
XPHY_EDGE_ROW_24_Left_85 VGND VGND VPWR VPWR sky130_fd_sc_hd__decap_3
X_1235_ dco_inst.accumulator\[24\] net83 VGND VGND VPWR VPWR _0644_ sky130_fd_sc_hd__or2_1
XFILLER_49_192 VGND VGND VPWR VPWR sky130_fd_sc_hd__decap_6
X_1304_ net6 _0701_ VGND VGND VPWR VPWR _0705_ sky130_fd_sc_hd__xnor2_1
X_1166_ _0579_ _0582_ _0583_ net252 VGND VGND VPWR VPWR _0585_ sky130_fd_sc_hd__a31o_1
X_1097_ dco_inst.accumulator\[5\] net94 VGND VGND VPWR VPWR _0525_ sky130_fd_sc_hd__or2_1
XFILLER_20_221 VGND VGND VPWR VPWR sky130_fd_sc_hd__decap_8
X_1999_ _0420_ _0422_ _0421_ VGND VGND VPWR VPWR _0430_ sky130_fd_sc_hd__a21bo_1
XTAP_TAPCELL_ROW_38_360 VGND VPWR sky130_fd_sc_hd__tapvpwrvgnd_1
XFILLER_50_41 VPWR VGND VPWR VGND sky130_ef_sc_hd__decap_12
XFILLER_7_225 VPWR VGND VPWR VGND sky130_ef_sc_hd__decap_12
XFILLER_50_85 VPWR VGND VPWR VGND sky130_ef_sc_hd__decap_12
XFILLER_19_332 VGND VGND VPWR VPWR sky130_fd_sc_hd__decap_4
XTAP_TAPCELL_ROW_44_396 VGND VPWR sky130_fd_sc_hd__tapvpwrvgnd_1
XFILLER_34_335 VGND VGND VPWR VPWR sky130_fd_sc_hd__decap_4
X_1922_ _1039_ net137 VGND VGND VPWR VPWR _0363_ sky130_fd_sc_hd__xnor2_1
X_1784_ _0248_ _0247_ VGND VGND VPWR VPWR _0249_ sky130_fd_sc_hd__xnor2_4
X_1853_ net231 net166 VGND VGND VPWR VPWR _0304_ sky130_fd_sc_hd__or2_1