*SPEF "ieee 1481-1999"
*DESIGN "pll_top"
*DATE "14:53:00 Wednesday December 17, 2025"
*VENDOR "The OpenROAD Project"
*PROGRAM "OpenROAD"
*VERSION "edf00dff99f6c40d67a30c0e22a8191c5d2ed9d6"
*DESIGN_FLOW "NAME_SCOPE LOCAL" "PIN_CAP NONE"
*DIVIDER /
*DELIMITER :
*BUS_DELIMITER []
*T_UNIT 1 NS
*C_UNIT 1 PF
*R_UNIT 1 OHM
*L_UNIT 1 HENRY

*NAME_MAP
*3 debug_dco_word[0]
*4 debug_dco_word[10]
*5 debug_dco_word[11]
*6 debug_dco_word[12]
*7 debug_dco_word[13]
*8 debug_dco_word[14]
*9 debug_dco_word[15]
*10 debug_dco_word[16]
*11 debug_dco_word[17]
*12 debug_dco_word[18]
*13 debug_dco_word[19]
*14 debug_dco_word[1]
*15 debug_dco_word[20]
*16 debug_dco_word[21]
*17 debug_dco_word[22]
*18 debug_dco_word[23]
*19 debug_dco_word[24]
*20 debug_dco_word[25]
*21 debug_dco_word[26]
*22 debug_dco_word[27]
*23 debug_dco_word[28]
*24 debug_dco_word[29]
*25 debug_dco_word[2]
*26 debug_dco_word[30]
*27 debug_dco_word[31]
*28 debug_dco_word[3]
*29 debug_dco_word[4]
*30 debug_dco_word[5]
*31 debug_dco_word[6]
*32 debug_dco_word[7]
*33 debug_dco_word[8]
*34 debug_dco_word[9]
*35 div_val[0]
*36 div_val[10]
*37 div_val[11]
*38 div_val[12]
*39 div_val[13]
*40 div_val[14]
*41 div_val[15]
*42 div_val[16]
*43 div_val[17]
*44 div_val[18]
*45 div_val[19]
*46 div_val[1]
*47 div_val[20]
*48 div_val[21]
*49 div_val[22]
*50 div_val[23]
*51 div_val[24]
*52 div_val[25]
*53 div_val[26]
*54 div_val[27]
*55 div_val[28]
*56 div_val[29]
*57 div_val[2]
*58 div_val[30]
*59 div_val[31]
*60 div_val[3]
*61 div_val[4]
*62 div_val[5]
*63 div_val[6]
*64 div_val[7]
*65 div_val[8]
*66 div_val[9]
*67 initial_freq[0]
*68 initial_freq[10]
*69 initial_freq[11]
*70 initial_freq[12]
*71 initial_freq[13]
*72 initial_freq[14]
*73 initial_freq[15]
*74 initial_freq[16]
*75 initial_freq[17]
*76 initial_freq[18]
*77 initial_freq[19]
*78 initial_freq[1]
*79 initial_freq[20]
*80 initial_freq[21]
*81 initial_freq[22]
*82 initial_freq[23]
*83 initial_freq[24]
*84 initial_freq[25]
*85 initial_freq[26]
*86 initial_freq[27]
*87 initial_freq[28]
*88 initial_freq[29]
*89 initial_freq[2]
*90 initial_freq[30]
*91 initial_freq[31]
*92 initial_freq[3]
*93 initial_freq[4]
*94 initial_freq[5]
*95 initial_freq[6]
*96 initial_freq[7]
*97 initial_freq[8]
*98 initial_freq[9]
*99 lock_detect
*100 pll_out
*101 ref_clk
*102 rst_n
*103 sys_clk
*104 _0000_
*105 _0001_
*106 _0002_
*107 _0003_
*108 _0004_
*109 _0005_
*110 _0006_
*111 _0007_
*112 _0008_
*113 _0009_
*114 _0010_
*115 _0011_
*116 _0012_
*117 _0013_
*118 _0014_
*119 _0015_
*120 _0016_
*121 _0017_
*122 _0018_
*123 _0019_
*124 _0020_
*125 _0021_
*126 _0022_
*127 _0023_
*128 _0024_
*129 _0025_
*130 _0026_
*131 _0027_
*132 _0028_
*133 _0029_
*134 _0030_
*135 _0031_
*136 _0032_
*137 _0033_
*138 _0034_
*139 _0035_
*140 _0036_
*141 _0037_
*142 _0038_
*143 _0039_
*144 _0040_
*145 _0041_
*146 _0042_
*147 _0043_
*148 _0044_
*149 _0045_
*150 _0046_
*151 _0047_
*152 _0048_
*153 _0049_
*154 _0050_
*155 _0051_
*156 _0052_
*157 _0053_
*158 _0054_
*159 _0055_
*160 _0056_
*161 _0057_
*162 _0058_
*163 _0059_
*164 _0060_
*165 _0061_
*166 _0062_
*167 _0063_
*168 _0064_
*169 _0065_
*170 _0066_
*171 _0067_
*172 _0068_
*173 _0069_
*174 _0070_
*175 _0071_
*176 _0072_
*177 _0073_
*178 _0074_
*179 _0075_
*180 _0076_
*181 _0077_
*182 _0078_
*183 _0079_
*184 _0080_
*185 _0081_
*186 _0082_
*187 _0083_
*188 _0084_
*189 _0085_
*190 _0086_
*191 _0087_
*192 _0088_
*193 _0089_
*194 _0090_
*195 _0091_
*196 _0092_
*197 _0093_
*198 _0094_
*199 _0095_
*200 _0096_
*201 _0097_
*202 _0098_
*203 _0099_
*204 _0100_
*205 _0101_
*206 _0102_
*207 _0103_
*208 _0104_
*209 _0105_
*210 _0106_
*211 _0107_
*212 _0108_
*213 _0109_
*214 _0110_
*215 _0111_
*216 _0112_
*217 _0113_
*218 _0114_
*219 _0115_
*220 _0116_
*221 _0117_
*222 _0118_
*223 _0119_
*224 _0120_
*225 _0121_
*226 _0122_
*227 _0123_
*228 _0124_
*229 _0125_
*230 _0126_
*231 _0127_
*232 _0128_
*233 _0129_
*234 _0130_
*235 _0131_
*236 _0132_
*237 _0133_
*238 _0134_
*239 _0135_
*240 _0136_
*241 _0137_
*242 _0138_
*243 _0139_
*244 _0140_
*245 _0141_
*246 _0142_
*247 _0143_
*248 _0144_
*249 _0145_
*250 _0146_
*251 _0147_
*252 _0148_
*253 _0149_
*254 _0150_
*255 _0151_
*256 _0152_
*257 _0153_
*258 _0154_
*259 _0155_
*260 _0156_
*261 _0157_
*262 _0158_
*263 _0159_
*264 _0160_
*265 _0161_
*266 _0162_
*267 _0163_
*268 _0164_
*269 _0165_
*270 _0166_
*271 _0167_
*272 _0168_
*273 _0169_
*274 _0170_
*275 _0171_
*276 _0172_
*277 _0173_
*278 _0174_
*279 _0175_
*280 _0176_
*281 _0177_
*282 _0178_
*283 _0179_
*284 _0180_
*285 _0181_
*286 _0182_
*287 _0183_
*288 _0184_
*289 _0185_
*290 _0186_
*291 _0187_
*292 _0188_
*293 _0189_
*294 _0190_
*295 _0191_
*296 _0192_
*297 _0193_
*298 _0194_
*299 _0195_
*300 _0196_
*301 _0197_
*302 _0198_
*303 _0199_
*304 _0200_
*305 _0201_
*306 _0202_
*307 _0203_
*308 _0204_
*309 _0205_
*310 _0206_
*311 _0207_
*312 _0208_
*313 _0209_
*314 _0210_
*315 _0211_
*316 _0212_
*317 _0213_
*318 _0214_
*319 _0215_
*320 _0216_
*321 _0217_
*322 _0218_
*323 _0219_
*324 _0220_
*325 _0221_
*326 _0222_
*327 _0223_
*328 _0224_
*329 _0225_
*330 _0226_
*331 _0227_
*332 _0228_
*333 _0229_
*334 _0230_
*335 _0231_
*336 _0232_
*337 _0233_
*338 _0234_
*339 _0235_
*340 _0236_
*341 _0237_
*342 _0238_
*343 _0239_
*344 _0240_
*345 _0241_
*346 _0242_
*347 _0243_
*348 _0244_
*349 _0245_
*350 _0246_
*351 _0247_
*352 _0248_
*353 _0249_
*354 _0250_
*355 _0251_
*356 _0252_
*357 _0253_
*358 _0254_
*359 _0255_
*360 _0256_
*361 _0257_
*362 _0258_
*363 _0259_
*364 _0260_
*365 _0261_
*366 _0262_
*367 _0263_
*368 _0264_
*369 _0265_
*370 _0266_
*371 _0267_
*372 _0268_
*373 _0269_
*374 _0270_
*375 _0271_
*376 _0272_
*377 _0273_
*378 _0274_
*379 _0275_
*380 _0276_
*381 _0277_
*382 _0278_
*383 _0279_
*384 _0280_
*385 _0281_
*386 _0282_
*387 _0283_
*388 _0284_
*389 _0285_
*390 _0286_
*391 _0287_
*392 _0288_
*393 _0289_
*394 _0290_
*395 _0291_
*396 _0292_
*397 _0293_
*398 _0294_
*399 _0295_
*400 _0296_
*401 _0297_
*402 _0298_
*403 _0299_
*404 _0300_
*405 _0301_
*406 _0302_
*407 _0303_
*408 _0304_
*409 _0305_
*410 _0306_
*411 _0307_
*412 _0308_
*413 _0309_
*414 _0310_
*415 _0311_
*416 _0312_
*417 _0313_
*418 _0314_
*419 _0315_
*420 _0316_
*421 _0317_
*422 _0318_
*423 _0319_
*424 _0320_
*425 _0321_
*426 _0322_
*427 _0323_
*428 _0324_
*429 _0325_
*430 _0326_
*431 _0327_
*432 _0328_
*433 _0329_
*434 _0330_
*435 _0331_
*436 _0332_
*437 _0333_
*438 _0334_
*439 _0335_
*440 _0336_
*441 _0337_
*442 _0338_
*443 _0339_
*444 _0340_
*445 _0341_
*446 _0342_
*447 _0343_
*448 _0344_
*449 _0345_
*450 _0346_
*451 _0347_
*452 _0348_
*453 _0349_
*454 _0350_
*455 _0351_
*456 _0352_
*457 _0353_
*458 _0354_
*459 _0355_
*460 _0356_
*461 _0357_
*462 _0358_
*463 _0359_
*464 _0360_
*465 _0361_
*466 _0362_
*467 _0363_
*468 _0364_
*469 _0365_
*470 _0366_
*471 _0367_
*472 _0368_
*473 _0369_
*474 _0370_
*475 _0371_
*476 _0372_
*477 _0373_
*478 _0374_
*479 _0375_
*480 _0376_
*481 _0377_
*482 _0378_
*483 _0379_
*484 _0380_
*485 _0381_
*486 _0382_
*487 _0383_
*488 _0384_
*489 _0385_
*490 _0386_
*491 _0387_
*492 _0388_
*493 _0389_
*494 _0390_
*495 _0391_
*496 _0392_
*497 _0393_
*498 _0394_
*499 _0395_
*500 _0396_
*501 _0397_
*502 _0398_
*503 _0399_
*504 _0400_
*505 _0401_
*506 _0402_
*507 _0403_
*508 _0404_
*509 _0405_
*510 _0406_
*511 _0407_
*512 _0408_
*513 _0409_
*514 _0410_
*515 _0411_
*516 _0412_
*517 _0413_
*518 _0414_
*519 _0415_
*520 _0416_
*521 _0417_
*522 _0418_
*523 _0419_
*524 _0420_
*525 _0421_
*526 _0422_
*527 _0423_
*528 _0424_
*529 _0425_
*530 _0426_
*531 _0427_
*532 _0428_
*533 _0429_
*534 _0430_
*535 _0431_
*536 _0432_
*537 _0433_
*538 _0434_
*539 _0435_
*540 _0436_
*541 _0437_
*542 _0438_
*543 _0439_
*544 _0440_
*545 _0441_
*546 _0442_
*547 _0443_
*548 _0444_
*549 _0445_
*550 _0446_
*551 _0447_
*552 _0448_
*553 _0449_
*554 _0450_
*555 _0451_
*556 _0452_
*557 _0453_
*558 _0454_
*559 _0455_
*560 _0456_
*561 _0457_
*562 _0458_
*563 _0459_
*564 _0460_
*565 _0461_
*566 _0462_
*567 _0463_
*568 _0464_
*569 _0465_
*570 _0466_
*571 _0467_
*572 _0468_
*573 _0469_
*574 _0470_
*575 _0471_
*576 _0472_
*577 _0473_
*578 _0474_
*579 _0475_
*580 _0476_
*581 _0477_
*582 _0478_
*583 _0479_
*584 _0480_
*585 _0481_
*586 _0482_
*587 _0483_
*588 _0484_
*589 _0485_
*590 _0486_
*591 _0487_
*592 _0488_
*593 _0489_
*594 _0490_
*595 _0491_
*596 _0492_
*597 _0493_
*598 _0494_
*599 _0495_
*600 _0496_
*601 _0497_
*602 _0498_
*603 _0499_
*604 _0500_
*605 _0501_
*606 _0502_
*607 _0503_
*608 _0504_
*609 _0505_
*610 _0506_
*611 _0507_
*612 _0508_
*613 _0509_
*614 _0510_
*615 _0511_
*616 _0512_
*617 _0513_
*618 _0514_
*619 _0515_
*620 _0516_
*621 _0517_
*622 _0518_
*623 _0519_
*624 _0520_
*625 _0521_
*626 _0522_
*627 _0523_
*628 _0524_
*629 _0525_
*630 _0526_
*631 _0527_
*632 _0528_
*633 _0529_
*634 _0530_
*635 _0531_
*636 _0532_
*637 _0533_
*638 _0534_
*639 _0535_
*640 _0536_
*641 _0537_
*642 _0538_
*643 _0539_
*644 _0540_
*645 _0541_
*646 _0542_
*647 _0543_
*648 _0544_
*649 _0545_
*650 _0546_
*651 _0547_
*652 _0548_
*653 _0549_
*654 _0550_
*655 _0551_
*656 _0552_
*657 _0553_
*658 _0554_
*659 _0555_
*660 _0556_
*661 _0557_
*662 _0558_
*663 _0559_
*664 _0560_
*665 _0561_
*666 _0562_
*667 _0563_
*668 _0564_
*669 _0565_
*670 _0566_
*671 _0567_
*672 _0568_
*673 _0569_
*674 _0570_
*675 _0571_
*676 _0572_
*677 _0573_
*678 _0574_
*679 _0575_
*680 _0576_
*681 _0577_
*682 _0578_
*683 _0579_
*684 _0580_
*685 _0581_
*686 _0582_
*687 _0583_
*688 _0584_
*689 _0585_
*690 _0586_
*691 _0587_
*692 _0588_
*693 _0589_
*694 _0590_
*695 _0591_
*696 _0592_
*697 _0593_
*698 _0594_
*699 _0595_
*700 _0596_
*701 _0597_
*702 _0598_
*703 _0599_
*704 _0600_
*705 _0601_
*706 _0602_
*707 _0603_
*708 _0604_
*709 _0605_
*710 _0606_
*711 _0607_
*712 _0608_
*713 _0609_
*714 _0610_
*715 _0611_
*716 _0612_
*717 _0613_
*718 _0614_
*719 _0615_
*720 _0616_
*721 _0617_
*722 _0618_
*723 _0619_
*724 _0620_
*725 _0621_
*726 _0622_
*727 _0623_
*728 _0624_
*729 _0625_
*730 _0626_
*731 _0627_
*732 _0628_
*733 _0629_
*734 _0630_
*735 _0631_
*736 _0632_
*737 _0633_
*738 _0634_
*739 _0635_
*740 _0636_
*741 _0637_
*742 _0638_
*743 _0639_
*744 _0640_
*745 _0641_
*746 _0642_
*747 _0643_
*748 _0644_
*749 _0645_
*750 _0646_
*751 _0647_
*752 _0648_
*753 _0649_
*754 _0650_
*755 _0651_
*756 _0652_
*757 _0653_
*758 _0654_
*759 _0655_
*760 _0656_
*761 _0657_
*762 _0658_
*763 _0659_
*764 _0660_
*765 _0661_
*766 _0662_
*767 _0663_
*768 _0664_
*769 _0665_
*770 _0666_
*771 _0667_
*772 _0668_
*773 _0669_
*774 _0670_
*775 _0671_
*776 _0672_
*777 _0673_
*778 _0674_
*779 _0675_
*780 _0676_
*781 _0677_
*782 _0678_
*783 _0679_
*784 _0680_
*785 _0681_
*786 _0682_
*787 _0683_
*788 _0684_
*789 _0685_
*790 _0686_
*791 _0687_
*792 _0688_
*793 _0689_
*794 _0690_
*795 _0691_
*796 _0692_
*797 _0693_
*798 _0694_
*799 _0695_
*800 _0696_
*801 _0697_
*802 _0698_
*803 _0699_
*804 _0700_
*805 _0701_
*806 _0702_
*807 _0703_
*808 _0704_
*809 _0705_
*810 _0706_
*811 _0707_
*812 _0708_
*813 _0709_
*814 _0710_
*815 _0711_
*816 _0712_
*817 _0713_
*818 _0714_
*819 _0715_
*820 _0716_
*821 _0717_
*822 _0718_
*823 _0719_
*824 _0720_
*825 _0721_
*826 _0722_
*827 _0723_
*828 _0724_
*829 _0725_
*830 _0726_
*831 _0727_
*832 _0728_
*833 _0729_
*834 _0730_
*835 _0731_
*836 _0732_
*837 _0733_
*838 _0734_
*839 _0735_
*840 _0736_
*841 _0737_
*842 _0738_
*843 _0739_
*844 _0740_
*845 _0741_
*846 _0742_
*847 _0743_
*848 _0744_
*849 _0745_
*850 _0746_
*851 _0747_
*852 _0748_
*853 _0749_
*854 _0750_
*855 _0751_
*856 _0752_
*857 _0753_
*858 _0754_
*859 _0755_
*860 _0756_
*861 _0757_
*862 _0758_
*863 _0759_
*864 _0760_
*865 _0761_
*866 _0762_
*867 _0763_
*868 _0764_
*869 _0765_
*870 _0766_
*871 _0767_
*872 _0768_
*873 _0769_
*874 _0770_
*875 _0771_
*876 _0772_
*877 _0773_
*878 _0774_
*879 _0775_
*880 _0776_
*881 _0777_
*882 _0778_
*883 _0779_
*884 _0780_
*885 _0781_
*886 _0782_
*887 _0783_
*888 _0784_
*889 _0785_
*890 _0786_
*891 _0787_
*892 _0788_
*893 _0789_
*894 _0790_
*895 _0791_
*896 _0792_
*897 _0793_
*898 _0794_
*899 _0795_
*900 _0796_
*901 _0797_
*902 _0798_
*903 _0799_
*904 _0800_
*905 _0801_
*906 _0802_
*907 _0803_
*908 _0804_
*909 _0805_
*910 _0806_
*911 _0807_
*912 _0808_
*913 _0809_
*914 _0810_
*915 _0811_
*916 _0812_
*917 _0813_
*918 _0814_
*919 _0815_
*920 _0816_
*921 _0817_
*922 _0818_
*923 _0819_
*924 _0820_
*925 _0821_
*926 _0822_
*927 _0823_
*928 _0824_
*929 _0825_
*930 _0826_
*931 _0827_
*932 _0828_
*933 _0829_
*934 _0830_
*935 _0831_
*936 _0832_
*937 _0833_
*938 _0834_
*939 _0835_
*940 _0836_
*941 _0837_
*942 _0838_
*943 _0839_
*944 _0840_
*945 _0841_
*946 _0842_
*947 _0843_
*948 _0844_
*949 _0845_
*950 _0846_
*951 _0847_
*952 _0848_
*953 _0849_
*954 _0850_
*955 _0851_
*956 _0852_
*957 _0853_
*958 _0854_
*959 _0855_
*960 _0856_
*961 _0857_
*962 _0858_
*963 _0859_
*964 _0860_
*965 _0861_
*966 _0862_
*967 _0863_
*968 _0864_
*969 _0865_
*970 _0866_
*971 _0867_
*972 _0868_
*973 _0869_
*974 _0870_
*975 _0871_
*976 _0872_
*977 _0873_
*978 _0874_
*979 _0875_
*980 _0876_
*981 _0877_
*982 _0878_
*983 _0879_
*984 _0880_
*985 _0881_
*986 _0882_
*987 _0883_
*988 _0884_
*989 _0885_
*990 _0886_
*991 _0887_
*992 _0888_
*993 _0889_
*994 _0890_
*995 _0891_
*996 _0892_
*997 _0893_
*998 _0894_
*999 _0895_
*1000 _0896_
*1001 _0897_
*1002 _0898_
*1003 _0899_
*1004 _0900_
*1005 _0901_
*1006 _0902_
*1007 _0903_
*1008 _0904_
*1009 _0905_
*1010 _0906_
*1011 _0907_
*1012 _0908_
*1013 _0909_
*1014 _0910_
*1015 _0911_
*1016 _0912_
*1017 _0913_
*1018 _0914_
*1019 _0915_
*1020 _0916_
*1021 _0917_
*1022 _0918_
*1023 _0919_
*1024 _0920_
*1025 _0921_
*1026 _0922_
*1027 _0923_
*1028 _0924_
*1029 _0925_
*1030 _0926_
*1031 _0927_
*1032 _0928_
*1033 _0929_
*1034 _0930_
*1035 _0931_
*1036 _0932_
*1037 _0933_
*1038 _0934_
*1039 _0935_
*1040 _0936_
*1041 _0937_
*1042 _0938_
*1043 _0939_
*1044 _0940_
*1045 _0941_
*1046 _0942_
*1047 _0943_
*1048 _0944_
*1049 _0945_
*1050 _0946_
*1051 _0947_
*1052 _0948_
*1053 _0949_
*1054 _0950_
*1055 _0951_
*1056 _0952_
*1057 _0953_
*1058 _0954_
*1059 _0955_
*1060 _0956_
*1061 _0957_
*1062 _0958_
*1063 _0959_
*1064 _0960_
*1065 _0961_
*1066 _0962_
*1067 _0963_
*1068 _0964_
*1069 _0965_
*1070 _0966_
*1071 _0967_
*1072 _0968_
*1073 _0969_
*1074 _0970_
*1075 _0971_
*1076 _0972_
*1077 _0973_
*1078 _0974_
*1079 _0975_
*1080 _0976_
*1081 _0977_
*1082 _0978_
*1083 _0979_
*1084 _0980_
*1085 _0981_
*1086 _0982_
*1087 _0983_
*1088 _0984_
*1089 _0985_
*1090 _0986_
*1091 _0987_
*1092 _0988_
*1093 _0989_
*1094 _0990_
*1095 _0991_
*1096 _0992_
*1097 _0993_
*1098 _0994_
*1099 _0995_
*1100 _0996_
*1101 _0997_
*1102 _0998_
*1103 _0999_
*1104 _1000_
*1105 _1001_
*1106 _1002_
*1107 _1003_
*1108 _1004_
*1109 _1005_
*1110 _1006_
*1111 _1007_
*1112 _1008_
*1113 _1009_
*1114 _1010_
*1115 _1011_
*1116 _1012_
*1117 _1013_
*1118 _1014_
*1119 _1015_
*1120 _1016_
*1121 _1017_
*1122 _1018_
*1123 _1019_
*1124 _1020_
*1125 _1021_
*1126 _1022_
*1127 _1023_
*1128 _1024_
*1129 _1025_
*1130 _1026_
*1131 _1027_
*1132 _1028_
*1133 _1029_
*1134 _1030_
*1135 clknet_0_sys_clk
*1136 clknet_4_0_0_sys_clk
*1137 clknet_4_10_0_sys_clk
*1138 clknet_4_11_0_sys_clk
*1139 clknet_4_12_0_sys_clk
*1140 clknet_4_13_0_sys_clk
*1141 clknet_4_14_0_sys_clk
*1142 clknet_4_15_0_sys_clk
*1143 clknet_4_1_0_sys_clk
*1144 clknet_4_2_0_sys_clk
*1145 clknet_4_3_0_sys_clk
*1146 clknet_4_4_0_sys_clk
*1147 clknet_4_5_0_sys_clk
*1148 clknet_4_6_0_sys_clk
*1149 clknet_4_7_0_sys_clk
*1150 clknet_4_8_0_sys_clk
*1151 clknet_4_9_0_sys_clk
*1152 dco_inst\.accumulator\[0\]
*1153 dco_inst\.accumulator\[10\]
*1154 dco_inst\.accumulator\[11\]
*1155 dco_inst\.accumulator\[12\]
*1156 dco_inst\.accumulator\[13\]
*1157 dco_inst\.accumulator\[14\]
*1158 dco_inst\.accumulator\[15\]
*1159 dco_inst\.accumulator\[16\]
*1160 dco_inst\.accumulator\[17\]
*1161 dco_inst\.accumulator\[18\]
*1162 dco_inst\.accumulator\[19\]
*1163 dco_inst\.accumulator\[1\]
*1164 dco_inst\.accumulator\[20\]
*1165 dco_inst\.accumulator\[21\]
*1166 dco_inst\.accumulator\[22\]
*1167 dco_inst\.accumulator\[23\]
*1168 dco_inst\.accumulator\[24\]
*1169 dco_inst\.accumulator\[25\]
*1170 dco_inst\.accumulator\[26\]
*1171 dco_inst\.accumulator\[27\]
*1172 dco_inst\.accumulator\[28\]
*1173 dco_inst\.accumulator\[29\]
*1174 dco_inst\.accumulator\[2\]
*1175 dco_inst\.accumulator\[30\]
*1176 dco_inst\.accumulator\[3\]
*1177 dco_inst\.accumulator\[4\]
*1178 dco_inst\.accumulator\[5\]
*1179 dco_inst\.accumulator\[6\]
*1180 dco_inst\.accumulator\[7\]
*1181 dco_inst\.accumulator\[8\]
*1182 dco_inst\.accumulator\[9\]
*1183 div_inst\.clk_out
*1184 div_inst\.counter\[0\]
*1185 div_inst\.counter\[10\]
*1186 div_inst\.counter\[11\]
*1187 div_inst\.counter\[12\]
*1188 div_inst\.counter\[13\]
*1189 div_inst\.counter\[14\]
*1190 div_inst\.counter\[15\]
*1191 div_inst\.counter\[16\]
*1192 div_inst\.counter\[17\]
*1193 div_inst\.counter\[18\]
*1194 div_inst\.counter\[19\]
*1195 div_inst\.counter\[1\]
*1196 div_inst\.counter\[20\]
*1197 div_inst\.counter\[21\]
*1198 div_inst\.counter\[22\]
*1199 div_inst\.counter\[23\]
*1200 div_inst\.counter\[24\]
*1201 div_inst\.counter\[25\]
*1202 div_inst\.counter\[26\]
*1203 div_inst\.counter\[27\]
*1204 div_inst\.counter\[28\]
*1205 div_inst\.counter\[29\]
*1206 div_inst\.counter\[2\]
*1207 div_inst\.counter\[30\]
*1208 div_inst\.counter\[31\]
*1209 div_inst\.counter\[3\]
*1210 div_inst\.counter\[4\]
*1211 div_inst\.counter\[5\]
*1212 div_inst\.counter\[6\]
*1213 div_inst\.counter\[7\]
*1214 div_inst\.counter\[8\]
*1215 div_inst\.counter\[9\]
*1216 dynamic_ki\[2\]
*1217 dynamic_kp\[2\]
*1218 lf_inst\.error_in\[0\]
*1219 lf_inst\.error_in\[1\]
*1220 lf_inst\.integrator\[0\]
*1221 lf_inst\.integrator\[10\]
*1222 lf_inst\.integrator\[11\]
*1223 lf_inst\.integrator\[12\]
*1224 lf_inst\.integrator\[13\]
*1225 lf_inst\.integrator\[14\]
*1226 lf_inst\.integrator\[15\]
*1227 lf_inst\.integrator\[16\]
*1228 lf_inst\.integrator\[17\]
*1229 lf_inst\.integrator\[18\]
*1230 lf_inst\.integrator\[19\]
*1231 lf_inst\.integrator\[1\]
*1232 lf_inst\.integrator\[20\]
*1233 lf_inst\.integrator\[21\]
*1234 lf_inst\.integrator\[22\]
*1235 lf_inst\.integrator\[23\]
*1236 lf_inst\.integrator\[24\]
*1237 lf_inst\.integrator\[25\]
*1238 lf_inst\.integrator\[26\]
*1239 lf_inst\.integrator\[27\]
*1240 lf_inst\.integrator\[28\]
*1241 lf_inst\.integrator\[29\]
*1242 lf_inst\.integrator\[2\]
*1243 lf_inst\.integrator\[30\]
*1244 lf_inst\.integrator\[31\]
*1245 lf_inst\.integrator\[3\]
*1246 lf_inst\.integrator\[4\]
*1247 lf_inst\.integrator\[5\]
*1248 lf_inst\.integrator\[6\]
*1249 lf_inst\.integrator\[7\]
*1250 lf_inst\.integrator\[8\]
*1251 lf_inst\.integrator\[9\]
*1252 lf_inst\.sample_en
*1253 lf_inst\.zero_error_count\[0\]
*1254 lf_inst\.zero_error_count\[1\]
*1255 lf_inst\.zero_error_count\[2\]
*1256 lf_inst\.zero_error_count\[3\]
*1257 lf_inst\.zero_error_count\[4\]
*1258 net1
*1259 net10
*1260 net100
*1261 net101
*1262 net102
*1263 net103
*1264 net104
*1265 net105
*1266 net106
*1267 net107
*1268 net108
*1269 net109
*1270 net11
*1271 net110
*1272 net111
*1273 net112
*1274 net113
*1275 net114
*1276 net115
*1277 net116
*1278 net117
*1279 net118
*1280 net119
*1281 net12
*1282 net120
*1283 net121
*1284 net122
*1285 net123
*1286 net124
*1287 net125
*1288 net126
*1289 net127
*1290 net128
*1291 net129
*1292 net13
*1293 net130
*1294 net131
*1295 net132
*1296 net133
*1297 net134
*1298 net135
*1299 net136
*1300 net137
*1301 net138
*1302 net139
*1303 net14
*1304 net140
*1305 net141
*1306 net142
*1307 net143
*1308 net144
*1309 net145
*1310 net146
*1311 net147
*1312 net148
*1313 net149
*1314 net15
*1315 net150
*1316 net151
*1317 net152
*1318 net153
*1319 net154
*1320 net155
*1321 net156
*1322 net157
*1323 net158
*1324 net159
*1325 net16
*1326 net160
*1327 net161
*1328 net162
*1329 net163
*1330 net164
*1331 net165
*1332 net166
*1333 net167
*1334 net168
*1335 net169
*1336 net17
*1337 net170
*1338 net171
*1339 net172
*1340 net173
*1341 net174
*1342 net175
*1343 net176
*1344 net177
*1345 net178
*1346 net179
*1347 net18
*1348 net180
*1349 net181
*1350 net182
*1351 net183
*1352 net184
*1353 net185
*1354 net187
*1355 net188
*1356 net189
*1357 net19
*1358 net190
*1359 net191
*1360 net192
*1361 net193
*1362 net194
*1363 net195
*1364 net196
*1365 net197
*1366 net198
*1367 net199
*1368 net2
*1369 net20
*1370 net200
*1371 net201
*1372 net202
*1373 net203
*1374 net204
*1375 net205
*1376 net206
*1377 net207
*1378 net208
*1379 net209
*1380 net21
*1381 net210
*1382 net211
*1383 net212
*1384 net213
*1385 net214
*1386 net215
*1387 net216
*1388 net217
*1389 net218
*1390 net219
*1391 net22
*1392 net220
*1393 net221
*1394 net222
*1395 net223
*1396 net224
*1397 net225
*1398 net226
*1399 net227
*1400 net228
*1401 net229
*1402 net23
*1403 net230
*1404 net231
*1405 net232
*1406 net233
*1407 net234
*1408 net235
*1409 net236
*1410 net237
*1411 net238
*1412 net239
*1413 net24
*1414 net240
*1415 net241
*1416 net242
*1417 net243
*1418 net244
*1419 net245
*1420 net246
*1421 net247
*1422 net248
*1423 net249
*1424 net25
*1425 net250
*1426 net251
*1427 net252
*1428 net253
*1429 net254
*1430 net255
*1431 net256
*1432 net257
*1433 net258
*1434 net259
*1435 net26
*1436 net260
*1437 net261
*1438 net262
*1439 net263
*1440 net264
*1441 net265
*1442 net266
*1443 net267
*1444 net268
*1445 net269
*1446 net27
*1447 net270
*1448 net271
*1449 net272
*1450 net273
*1451 net274
*1452 net275
*1453 net276
*1454 net277
*1455 net278
*1456 net279
*1457 net28
*1458 net280
*1459 net281
*1460 net282
*1461 net283
*1462 net284
*1463 net285
*1464 net286
*1465 net287
*1466 net288
*1467 net289
*1468 net29
*1469 net290
*1470 net291
*1471 net292
*1472 net293
*1473 net294
*1474 net295
*1475 net296
*1476 net297
*1477 net298
*1478 net299
*1479 net3
*1480 net30
*1481 net300
*1482 net301
*1483 net302
*1484 net303
*1485 net304
*1486 net305
*1487 net306
*1488 net307
*1489 net308
*1490 net309
*1491 net31
*1492 net310
*1493 net311
*1494 net312
*1495 net313
*1496 net314
*1497 net315
*1498 net316
*1499 net317
*1500 net318
*1501 net319
*1502 net32
*1503 net320
*1504 net321
*1505 net322
*1506 net323
*1507 net324
*1508 net325
*1509 net326
*1510 net327
*1511 net328
*1512 net329
*1513 net33
*1514 net330
*1515 net331
*1516 net332
*1517 net333
*1518 net334
*1519 net335
*1520 net336
*1521 net337
*1522 net338
*1523 net339
*1524 net34
*1525 net340
*1526 net341
*1527 net35
*1528 net36
*1529 net37
*1530 net38
*1531 net39
*1532 net4
*1533 net40
*1534 net41
*1535 net42
*1536 net43
*1537 net44
*1538 net45
*1539 net46
*1540 net47
*1541 net48
*1542 net49
*1543 net5
*1544 net50
*1545 net51
*1546 net52
*1547 net53
*1548 net54
*1549 net55
*1550 net56
*1551 net57
*1552 net58
*1553 net59
*1554 net6
*1555 net60
*1556 net61
*1557 net62
*1558 net63
*1559 net64
*1560 net65
*1561 net66
*1562 net67
*1563 net68
*1564 net69
*1565 net7
*1566 net70
*1567 net71
*1568 net72
*1569 net73
*1570 net74
*1571 net75
*1572 net76
*1573 net77
*1574 net78
*1575 net79
*1576 net8
*1577 net80
*1578 net81
*1579 net82
*1580 net83
*1581 net84
*1582 net85
*1583 net86
*1584 net87
*1585 net88
*1586 net89
*1587 net9
*1588 net90
*1589 net91
*1590 net92
*1591 net93
*1592 net94
*1593 net95
*1594 net96
*1595 net97
*1596 net98
*1597 net99
*1598 pfd_inst\.fb_sync\[0\]
*1599 pfd_inst\.fb_sync\[1\]
*1600 pfd_inst\.fb_sync\[2\]
*1601 pfd_inst\.ref_sync\[0\]
*1602 pfd_inst\.ref_sync\[1\]
*1603 pfd_inst\.ref_sync\[2\]
*1604 pfd_inst\.state\[0\]
*1605 pfd_inst\.state\[1\]
*1606 pfd_inst\.state\[2\]
*1607 unlock_timer\[0\]
*1608 unlock_timer\[1\]
*1609 unlock_timer\[2\]
*1610 unlock_timer\[3\]
*1611 unlock_timer\[4\]
*1612 unlock_timer\[5\]
*1613 FILLER_0_105
*1614 FILLER_0_113
*1615 FILLER_0_118
*1616 FILLER_0_126
*1617 FILLER_0_133
*1618 FILLER_0_141
*1619 FILLER_0_147
*1620 FILLER_0_15
*1621 FILLER_0_154
*1622 FILLER_0_160
*1623 FILLER_0_194
*1624 FILLER_0_197
*1625 FILLER_0_209
*1626 FILLER_0_216
*1627 FILLER_0_225
*1628 FILLER_0_230
*1629 FILLER_0_237
*1630 FILLER_0_245
*1631 FILLER_0_251
*1632 FILLER_0_253
*1633 FILLER_0_261
*1634 FILLER_0_265
*1635 FILLER_0_27
*1636 FILLER_0_273
*1637 FILLER_0_281
*1638 FILLER_0_287
*1639 FILLER_0_29
*1640 FILLER_0_295
*1641 FILLER_0_3
*1642 FILLER_0_301
*1643 FILLER_0_307
*1644 FILLER_0_309
*1645 FILLER_0_321
*1646 FILLER_0_333
*1647 FILLER_0_337
*1648 FILLER_0_349
*1649 FILLER_0_357
*1650 FILLER_0_41
*1651 FILLER_0_53
*1652 FILLER_0_57
*1653 FILLER_0_69
*1654 FILLER_0_81
*1655 FILLER_0_85
*1656 FILLER_0_97
*1657 FILLER_10_105
*1658 FILLER_10_124
*1659 FILLER_10_138
*1660 FILLER_10_141
*1661 FILLER_10_177
*1662 FILLER_10_194
*1663 FILLER_10_207
*1664 FILLER_10_21
*1665 FILLER_10_225
*1666 FILLER_10_231
*1667 FILLER_10_240
*1668 FILLER_10_251
*1669 FILLER_10_258
*1670 FILLER_10_280
*1671 FILLER_10_289
*1672 FILLER_10_29
*1673 FILLER_10_3
*1674 FILLER_10_309
*1675 FILLER_10_321
*1676 FILLER_10_333
*1677 FILLER_10_342
*1678 FILLER_10_35
*1679 FILLER_10_354
*1680 FILLER_10_43
*1681 FILLER_10_56
*1682 FILLER_10_68
*1683 FILLER_10_80
*1684 FILLER_10_85
*1685 FILLER_10_97
*1686 FILLER_11_104
*1687 FILLER_11_123
*1688 FILLER_11_135
*1689 FILLER_11_147
*1690 FILLER_11_159
*1691 FILLER_11_167
*1692 FILLER_11_169
*1693 FILLER_11_181
*1694 FILLER_11_194
*1695 FILLER_11_198
*1696 FILLER_11_223
*1697 FILLER_11_239
*1698 FILLER_11_245
*1699 FILLER_11_251
*1700 FILLER_11_3
*1701 FILLER_11_313
*1702 FILLER_11_325
*1703 FILLER_11_333
*1704 FILLER_11_352
*1705 FILLER_11_54
*1706 FILLER_11_62
*1707 FILLER_11_68
*1708 FILLER_11_80
*1709 FILLER_11_92
*1710 FILLER_12_101
*1711 FILLER_12_131
*1712 FILLER_12_139
*1713 FILLER_12_149
*1714 FILLER_12_158
*1715 FILLER_12_16
*1716 FILLER_12_168
*1717 FILLER_12_176
*1718 FILLER_12_183
*1719 FILLER_12_226
*1720 FILLER_12_238
*1721 FILLER_12_242
*1722 FILLER_12_250
*1723 FILLER_12_253
*1724 FILLER_12_29
*1725 FILLER_12_299
*1726 FILLER_12_3
*1727 FILLER_12_307
*1728 FILLER_12_309
*1729 FILLER_12_329
*1730 FILLER_12_337
*1731 FILLER_12_41
*1732 FILLER_12_64
*1733 FILLER_12_82
*1734 FILLER_12_85
*1735 FILLER_12_97
*1736 FILLER_13_105
*1737 FILLER_13_111
*1738 FILLER_13_113
*1739 FILLER_13_117
*1740 FILLER_13_123
*1741 FILLER_13_150
*1742 FILLER_13_165
*1743 FILLER_13_180
*1744 FILLER_13_197
*1745 FILLER_13_201
*1746 FILLER_13_209
*1747 FILLER_13_220
*1748 FILLER_13_225
*1749 FILLER_13_235
*1750 FILLER_13_241
*1751 FILLER_13_25
*1752 FILLER_13_259
*1753 FILLER_13_278
*1754 FILLER_13_281
*1755 FILLER_13_287
*1756 FILLER_13_3
*1757 FILLER_13_303
*1758 FILLER_13_313
*1759 FILLER_13_330
*1760 FILLER_13_346
*1761 FILLER_13_354
*1762 FILLER_13_37
*1763 FILLER_13_49
*1764 FILLER_13_55
*1765 FILLER_13_57
*1766 FILLER_13_69
*1767 FILLER_13_81
*1768 FILLER_13_93
*1769 FILLER_14_109
*1770 FILLER_14_127
*1771 FILLER_14_139
*1772 FILLER_14_147
*1773 FILLER_14_195
*1774 FILLER_14_21
*1775 FILLER_14_232
*1776 FILLER_14_249
*1777 FILLER_14_253
*1778 FILLER_14_257
*1779 FILLER_14_269
*1780 FILLER_14_27
*1781 FILLER_14_278
*1782 FILLER_14_307
*1783 FILLER_14_325
*1784 FILLER_14_336
*1785 FILLER_14_348
*1786 FILLER_14_356
*1787 FILLER_14_45
*1788 FILLER_14_51
*1789 FILLER_14_6
*1790 FILLER_14_64
*1791 FILLER_14_76
*1792 FILLER_14_85
*1793 FILLER_14_97
*1794 FILLER_15_102
*1795 FILLER_15_110
*1796 FILLER_15_113
*1797 FILLER_15_125
*1798 FILLER_15_137
*1799 FILLER_15_149
*1800 FILLER_15_161
*1801 FILLER_15_167
*1802 FILLER_15_200
*1803 FILLER_15_208
*1804 FILLER_15_217
*1805 FILLER_15_239
*1806 FILLER_15_247
*1807 FILLER_15_263
*1808 FILLER_15_276
*1809 FILLER_15_281
*1810 FILLER_15_29
*1811 FILLER_15_299
*1812 FILLER_15_311
*1813 FILLER_15_322
*1814 FILLER_15_334
*1815 FILLER_15_337
*1816 FILLER_15_345
*1817 FILLER_15_350
*1818 FILLER_15_43
*1819 FILLER_15_52
*1820 FILLER_15_6
*1821 FILLER_15_72
*1822 FILLER_15_90
*1823 FILLER_16_109
*1824 FILLER_16_121
*1825 FILLER_16_133
*1826 FILLER_16_139
*1827 FILLER_16_141
*1828 FILLER_16_153
*1829 FILLER_16_165
*1830 FILLER_16_177
*1831 FILLER_16_186
*1832 FILLER_16_197
*1833 FILLER_16_21
*1834 FILLER_16_218
*1835 FILLER_16_229
*1836 FILLER_16_248
*1837 FILLER_16_261
*1838 FILLER_16_27
*1839 FILLER_16_276
*1840 FILLER_16_288
*1841 FILLER_16_300
*1842 FILLER_16_309
*1843 FILLER_16_317
*1844 FILLER_16_324
*1845 FILLER_16_332
*1846 FILLER_16_41
*1847 FILLER_16_53
*1848 FILLER_16_6
*1849 FILLER_16_70
*1850 FILLER_16_82
*1851 FILLER_16_85
*1852 FILLER_16_97
*1853 FILLER_17_10
*1854 FILLER_17_105
*1855 FILLER_17_111
*1856 FILLER_17_113
*1857 FILLER_17_125
*1858 FILLER_17_137
*1859 FILLER_17_14
*1860 FILLER_17_149
*1861 FILLER_17_161
*1862 FILLER_17_167
*1863 FILLER_17_181
*1864 FILLER_17_214
*1865 FILLER_17_220
*1866 FILLER_17_230
*1867 FILLER_17_242
*1868 FILLER_17_250
*1869 FILLER_17_26
*1870 FILLER_17_262
*1871 FILLER_17_268
*1872 FILLER_17_291
*1873 FILLER_17_297
*1874 FILLER_17_329
*1875 FILLER_17_357
*1876 FILLER_17_38
*1877 FILLER_17_50
*1878 FILLER_17_57
*1879 FILLER_17_6
*1880 FILLER_17_69
*1881 FILLER_17_81
*1882 FILLER_17_93
*1883 FILLER_18_104
*1884 FILLER_18_116
*1885 FILLER_18_128
*1886 FILLER_18_141
*1887 FILLER_18_153
*1888 FILLER_18_16
*1889 FILLER_18_175
*1890 FILLER_18_189
*1891 FILLER_18_195
*1892 FILLER_18_197
*1893 FILLER_18_209
*1894 FILLER_18_240
*1895 FILLER_18_253
*1896 FILLER_18_274
*1897 FILLER_18_291
*1898 FILLER_18_297
*1899 FILLER_18_3
*1900 FILLER_18_309
*1901 FILLER_18_314
*1902 FILLER_18_318
*1903 FILLER_18_32
*1904 FILLER_18_329
*1905 FILLER_18_344
*1906 FILLER_18_37
*1907 FILLER_18_49
*1908 FILLER_18_64
*1909 FILLER_18_76
*1910 FILLER_18_82
*1911 FILLER_18_85
*1912 FILLER_18_92
*1913 FILLER_19_106
*1914 FILLER_19_113
*1915 FILLER_19_125
*1916 FILLER_19_137
*1917 FILLER_19_149
*1918 FILLER_19_15
*1919 FILLER_19_161
*1920 FILLER_19_180
*1921 FILLER_19_184
*1922 FILLER_19_203
*1923 FILLER_19_215
*1924 FILLER_19_220
*1925 FILLER_19_225
*1926 FILLER_19_232
*1927 FILLER_19_256
*1928 FILLER_19_268
*1929 FILLER_19_281
*1930 FILLER_19_289
*1931 FILLER_19_293
*1932 FILLER_19_301
*1933 FILLER_19_329
*1934 FILLER_19_6
*1935 FILLER_19_69
*1936 FILLER_19_80
*1937 FILLER_1_101
*1938 FILLER_1_137
*1939 FILLER_1_15
*1940 FILLER_1_166
*1941 FILLER_1_204
*1942 FILLER_1_217
*1943 FILLER_1_241
*1944 FILLER_1_263
*1945 FILLER_1_27
*1946 FILLER_1_281
*1947 FILLER_1_285
*1948 FILLER_1_289
*1949 FILLER_1_3
*1950 FILLER_1_318
*1951 FILLER_1_330
*1952 FILLER_1_337
*1953 FILLER_1_349
*1954 FILLER_1_357